Measurement: Powder, Xray Data XY Processed
Mineral: Actinolite
Rruff sample: R060045
Ideal chemistry: Ca_2_(Mg_4.5-2.5_Fe^2+^_0.5-2.5_)Si_8_O_22_(OH)_2_
Locality: Colorado, USA
Source: University of Arizona Mineral Museum
Description: Green prismatic crystals in a radial arrangement
Diffraction sample description: Powder
Measured chemistry: (Ca_1.99_Na_0.01_)_Σ=2_(Mg_4.20_Fe^2+^_0.59_Al_0.09_Fe^3+^_0.08_Mn_0.02_Ti_0.01_)_Σ=5_(Si_7.82_Al_0.18_)_Σ=8_O_22_(OH)_2_
Cell parameters: a: 9.8485(4) b: 18.077(1) c: 5.2836(4) alpha: 90 beta: 104.781(6) gamma: 90 volume: 909.54(7) crystal system: monoclinic
x	intensity
5	0
5.22	14.586
5.44	9.767
5.66	16.475
5.88	7.708
6.1	19.275
6.32	33.742
6.54	6.252
6.76	29.393
6.98	5.17
7.2	18.102
7.42	6.233
7.64	10.992
7.86	6.564
8.08	19.698
8.3	5.769
8.52	5.73
8.74	12.856
8.96	14.143
9.18	16.176
9.4	4.684
9.62	11.165
9.84	63.458
10.06	11.288
10.28	13.125
10.5	784.596
10.72	12.028
10.94	10.729
11.16	6.194
11.38	14.888
11.6	9.447
11.82	7.972
12.04	5.5
12.26	3.908
12.48	3.733
12.7	8.145
12.92	11.602
13.14	12.622
13.36	3.439
13.58	12.649
13.8	2.784
14.02	1.778
14.24	5.767
14.46	5.025
14.68	5.422
14.9	10.915
15.12	8.823
15.34	6.831
15.56	10.269
15.78	8.927
16	30.719
16.22	22.758
16.44	3.185
16.66	10.228
16.88	5.968
17.1	12.614
17.32	12.921
17.54	7.824
17.76	4.619
17.98	9.147
18.2	37.943
18.42	7.088
18.64	23.827
18.86	13.139
19.08	4.857
19.3	15.212
19.52	19.375
19.74	27.992
19.96	10.084
20.18	8.117
20.4	9.306
20.62	9.381
20.84	17.445
21.06	56.371
21.28	4.5
21.5	8.699
21.72	9.626
21.94	10.602
22.16	2.896
22.38	14.416
22.6	4.654
22.82	3.287
23.04	18.24
23.26	4.318
23.48	11.345
23.7	23.926
23.92	6.02
24.14	6.819
24.36	10.814
24.58	16.056
24.8	2.626
25.02	2.452
25.24	5.091
25.46	7.759
25.68	6.308
25.9	5.39
26.12	7.537
26.34	122.857
26.56	21.261
26.78	29.296
27	11.31
27.22	160.151
27.44	8.644
27.66	12.557
27.88	18.987
28.1	3.806
28.32	12.31
28.54	626.349
28.76	33.13
28.98	13.481
29.2	6.824
29.42	8.18
29.64	8.086
29.86	21.191
30.08	5.844
30.3	37.9
30.52	9.083
30.74	1.529
30.96	21.961
31.18	20.527
31.4	8.792
31.62	10.236
31.84	83.522
32.06	12.676
32.28	21.217
32.5	13.784
32.72	85.923
32.94	27.105
33.16	132.226
33.38	7.116
33.6	18.921
33.82	5.861
34.04	17.706
34.26	5.567
34.48	24.421
34.7	19.077
34.92	6.666
35.14	13.288
35.36	93.771
35.58	18.849
35.8	1.246
36.02	2.809
36.24	6.742
36.46	1.12
36.68	14.876
36.9	5.899
37.12	20.571
37.34	19.123
37.56	10.781
37.78	30.911
38	8.636
38.22	0.982
38.44	95.349
38.66	43.311
38.88	17.079
39.1	47.788
39.32	10.089
39.54	38.237
39.76	6.659
39.98	12.149
40.2	1.219
40.42	10.821
40.64	9.791
40.86	11.863
41.08	0.689
41.3	11.104
41.52	8.792
41.74	61.61
41.96	12.868
42.18	4.581
42.4	4.742
42.62	5.557
42.84	0.995
43.06	6.129
43.28	10.063
43.5	8.252
43.72	4.363
43.94	9.348
44.16	17.365
44.38	26.064
44.6	4.582
44.82	19.571
45.04	47.605
45.26	23.269
45.48	13.261
45.7	2.305
45.92	11.072
46.14	11.948
46.36	6.762
46.58	1.798
46.8	8.485
47.02	6.099
47.24	5.307
47.46	0.101
47.68	5.943
47.9	11.473
48.12	37.04
48.34	1.805
48.56	17.339
48.78	19.502
49	2.517
49.22	0.798
49.44	16.835
49.66	16.653
49.88	6.187
50.1	15.521
50.32	26.069
50.54	18.677
50.76	16.828
50.98	8.998
51.2	1.82
51.42	2.745
51.64	0.025
51.86	8.317
52.08	14.196
52.3	13.122
52.52	0.022
52.74	15.599
52.96	8.214
53.18	10.077
53.4	5.992
53.62	10.354
53.84	4.339
54.06	17.285
54.28	10.904
54.5	0.69
54.72	6.321
54.94	16.151
55.16	5.991
55.38	9.266
55.6	39.148
55.82	45.072
56.04	27.516
56.26	17.559
56.48	8.416
56.7	24.9
56.92	11.042
57.14	2.194
57.36	3.757
57.58	7.387
57.8	14.621
58.02	34.533
58.24	28.461
58.46	19.403
58.68	1.007
58.9	12.276
59.12	21.67
59.34	8.465
59.56	4.301
59.78	13.503
60	3.35
60.22	14.031
60.44	24.198
60.66	1.473
60.88	6.178
61.1	13.368
61.32	26.134
61.54	33.446
61.76	26.736
61.98	9.103
62.2	10.829
62.42	5.931
62.64	7.771
62.86	0.439
63.08	14.197
63.3	4.457
63.52	8.129
63.74	13.593
63.96	0.305
64.18	8.981
64.4	23.049
64.62	27.183
64.84	54.481
65.06	4.011
65.28	10.72
65.5	3.257
65.72	2.575
65.94	1.942
66.16	8.81
66.38	3.965
66.6	5.301
66.82	11.309
67.04	13.55
67.26	12.989
67.48	7.308
67.7	13.298
67.92	14.182
68.14	4.079
68.36	14.824
68.58	14.492
68.8	14.639
69.02	19.896
69.24	31.596
69.46	11.861
69.68	11.765
69.9	1.235
70.12	9.419
70.34	14.762
70.56	19.83
70.78	14.894
71	4.502
71.22	16.06
71.44	16.413
71.66	0.84
71.88	16.724
72.1	9.294
72.32	14.787
72.54	5.585
72.76	5.813
72.98	16.521
73.2	21.846
73.42	5.948
73.64	3.131
73.86	18.953
74.08	18.133
74.3	6.458
74.52	11.034
74.74	17.832
74.96	6.602
75.18	13.978
75.4	13.662
75.62	1.923
75.84	6.481
76.06	5.625
76.28	9.86
76.5	23.04
76.72	18.365
76.94	14.9
77.16	20.634
77.38	5.011
77.6	3.01
77.82	21.5
78.04	8.295
78.26	1.942
78.48	1.526
78.7	9.917
78.92	4.812
79.14	7.341
79.36	4.001
79.58	19.846
79.8	20.691
80.02	12.895
80.24	9.11
80.46	12.09
80.68	5.517
80.9	0.815
81.12	4.188
81.34	7.369
81.56	3.386
81.78	10.063
82	25.221
82.22	1.317
82.44	7.417
82.66	9.613
82.88	17.482
83.1	11.129
83.32	13.572
83.54	13.727
83.76	9.664
83.98	10.852
84.2	11.146
84.42	3.619
84.64	9.896
84.86	3.055
85.08	9.939
85.3	17.073
85.52	10.207
85.74	8.982
85.96	6.675
86.18	1.791
86.4	19.827
86.62	19.064
86.84	6.78
87.06	10.641
87.28	6.024
87.5	16.036
87.72	3.078
87.94	14.196
88.16	16.167
88.38	2.358
88.6	11.578
88.82	23.617
89.04	2.63
89.26	8.134
89.48	24.415
89.7	11.762
89.92	14.908
