Measurement: Powder, Xray Data XY Processed
Mineral: Actinolite
Rruff sample: R050336
Ideal chemistry: Ca_2_(Mg_4.5-2.5_Fe^2+^_0.5-2.5_)Si_8_O_22_(OH)_2_
Locality: Kragerø, Norway
Source: California Institute of Technology
Description: Dark green prismatic fragment
Diffraction sample description: Powder
Measured chemistry: ([box]_0.62_Na_0.34_K_0.04_)(Ca_1.60_Na_0.40_)_Σ=2_(Mg_3.90_Fe^2+^_0.70_Al_0.20_Ti_0.10_Fe^3+^_0.10_)_Σ=5_(Si_7.52_Al_0.48_)_Σ=8_O_22_((OH)_0.97_F_0.03_)_2_
Cell parameters: a: 9.8392(7) b: 18.0529(6) c: 5.2900(4) alpha: 90. beta: 104.666(5) gamma: 90. volume: 909.03(7) crystal system: monoclinic
x	intensity
5	0
5.22	12.9634
5.44	26.7083
5.66	4.114
5.88	4.42821
6.1	6.39288
6.32	9.78181
6.54	9.03524
6.76	9.25742
6.98	11.7808
7.2	12.7877
7.42	8.13393
7.64	6.11792
7.86	16.0493
8.08	3.43667
8.3	18.6914
8.52	15.9436
8.74	17.6917
8.96	3.83774
9.18	3.77883
9.4	15.6979
9.62	1.07587
9.84	124.213
10.06	13.5312
10.28	17.1328
10.5	281.148
10.72	22.1144
10.94	11.7822
11.16	2.24411
11.38	18.8577
11.6	26.7056
11.82	4.24354
12.04	5.34278
12.26	14.8146
12.48	9.04554
12.7	12.7823
12.92	22.5572
13.14	2.50674
13.36	18.4257
13.58	14.6184
13.8	4.44203
14.02	23.5084
14.24	22.1777
14.46	5.38708
14.68	5.46829
14.9	24.1788
15.12	19.5238
15.34	7.99202
15.56	0.112732
15.78	14.9109
16	4.71863
16.22	6.6209
16.44	11.3482
16.66	9.4396
16.88	8.20821
17.1	5.05359
17.32	8.50726
17.54	11.9186
17.76	13.3386
17.98	13.2062
18.2	68.4879
18.42	17.6416
18.64	16.5183
18.86	8.19212
19.08	25.1192
19.3	11.0303
19.52	2.17486
19.74	61.7681
19.96	21.5021
20.18	15.8509
20.4	5.94972
20.62	2.41435
20.84	12.0685
21.06	9.4136
21.28	7.39311
21.5	4.69407
21.72	6.7145
21.94	18.7096
22.16	0.004848
22.38	5.56146
22.6	11.7755
22.82	4.29
23.04	18.7032
23.26	14.6712
23.48	0.948994
23.7	17.5468
23.92	6.79921
24.14	9.21038
24.36	16.1902
24.58	12.2032
24.8	31.208
25.02	32.676
25.24	11.6335
25.46	4.96198
25.68	26.4421
25.9	6.74993
26.12	0.716042
26.34	176.034
26.56	1.73842
26.78	7.89747
27	13.8094
27.22	100.852
27.44	15.6437
27.66	4.74797
27.88	3.5
28.1	8.04547
28.32	21.5381
28.54	193.803
28.76	39.0924
28.98	20.3982
29.2	21.5595
29.42	7.25198
29.64	23.1644
29.86	14.6772
30.08	11.1991
30.3	43.165
30.52	17.0202
30.74	8.48663
30.96	13.4577
31.18	20.1838
31.4	3.1356
31.62	21.0544
31.84	23.7533
32.06	14.974
32.28	16.1599
32.5	8.94154
32.72	20.6979
32.94	42.7089
33.16	167.437
33.38	3.35017
33.6	4.97132
33.82	2.57335
34.04	5.09131
34.26	13.968
34.48	18.9175
34.7	55.4721
34.92	12.3699
35.14	10.0558
35.36	62.6563
35.58	17.0494
35.8	5.41547
36.02	9.35828
36.24	6.0374
36.46	5.63516
36.68	19.9174
36.9	11.1083
37.12	4.85973
37.34	0.317558
37.56	13.2441
37.78	19.6554
38	11.2499
38.22	13.204
38.44	32.5311
38.66	26.3253
38.88	35.5574
39.1	7.64933
39.32	24.1391
39.54	34.9914
39.76	14.363
39.98	8.89038
40.2	8.83202
40.42	14.0722
40.64	4.91831
40.86	12.2906
41.08	2.39626
41.3	11.4821
41.52	24.725
41.74	98.2176
41.96	33.999
42.18	1.81797
42.4	0.153519
42.62	7.11669
42.84	5.83719
43.06	28.908
43.28	15.6368
43.5	9.41301
43.72	10.0603
43.94	3.09831
44.16	6.3017
44.38	0.044136
44.6	2.51811
44.82	24.3542
45.04	33.8867
45.26	23.7134
45.48	11.5009
45.7	1.68521
45.92	13.7192
46.14	6.77589
46.36	23.2117
46.58	9.98321
46.8	12.2259
47.02	21.117
47.24	5.01124
47.46	2.97619
47.68	7.91533
47.9	7.26413
48.12	21.237
48.34	2.20436
48.56	5.45181
48.78	19.3985
49	8.68336
49.22	9.83244
49.44	4.39174
49.66	6.62801
49.88	9.23126
50.1	2.92964
50.32	12.8731
50.54	17.2941
50.76	15.9753
50.98	11.5253
51.2	11.2248
51.42	4.17242
51.64	7.06876
51.86	5.00876
52.08	3.16233
52.3	8.89588
52.52	2.46062
52.74	2.01066
52.96	10.2272
53.18	4.68827
53.4	13.1089
53.62	6.33647
53.84	12.1475
54.06	15.0777
54.28	28.841
54.5	15.3945
54.72	13.2953
54.94	10.1188
55.16	1.08647
55.38	6.07902
55.6	52.1323
55.82	86.2544
56.04	5.41772
56.26	6.52843
56.48	11.6985
56.7	15.5548
56.92	24.8693
57.14	9.18389
57.36	1.37528
57.58	8.94504
57.8	8.21027
58.02	13.366
58.24	13.4474
58.46	10.6962
58.68	13.8575
58.9	17.281
59.12	17.6126
59.34	10.4703
59.56	7.67364
59.78	13.8964
60	4.38931
60.22	4.73695
60.44	12.676
60.66	17.7819
60.88	9.68873
61.1	31.7695
61.32	21.5879
61.54	10.8859
61.76	1.90519
61.98	6.79888
62.2	0.693224
62.42	2.67445
62.64	6.12117
62.86	12.1967
63.08	15.9652
63.3	8.16305
63.52	0.486778
63.74	3.3319
63.96	10.1285
64.18	9.07502
64.4	2.60165
64.62	12.9391
64.84	44.9299
65.06	14.0105
65.28	9.25312
65.5	10.6173
65.72	6.70471
65.94	7.98735
66.16	9.22922
66.38	8.7293
66.6	4.7738
66.82	11.3491
67.04	3.9346
67.26	12.7039
67.48	1.55393
67.7	13.3386
67.92	16.1391
68.14	0.925699
68.36	6.36596
68.58	5.46666
68.8	14.2449
69.02	11.9443
69.24	10.4078
69.46	2.82494
69.68	10.6896
69.9	2.31589
70.12	15.0702
70.34	17.1263
70.56	10.1202
70.78	12.3995
71	7.00049
71.22	4.58188
71.44	9.65556
71.66	0.158051
71.88	1.09045
72.1	13.1066
72.32	15.4162
72.54	2.06492
72.76	6.30106
72.98	5.29548
73.2	10.4583
73.42	12.7948
73.64	1.98494
73.86	20.3194
74.08	28.0474
74.3	6.68261
74.52	0.197367
74.74	17.8596
74.96	13.7523
75.18	3.33767
75.4	5.84275
75.62	17.1242
75.84	6.29598
76.06	1.42146
76.28	4.46975
76.5	28.4434
76.72	13.5448
76.94	11.4399
77.16	14.2165
77.38	4.09846
77.6	17.2953
77.82	9.13166
78.04	4.85327
78.26	7.17546
78.48	3.46982
78.7	2.30371
78.92	18.1291
79.14	9.26641
79.36	12.3915
79.58	12.483
79.8	10.623
80.02	5.40869
80.24	0.512499
80.46	3.33064
80.68	2.8443
80.9	0.282118
81.12	10.6457
81.34	2.7169
81.56	12.7238
81.78	3.75877
82	9.05251
82.22	7.758
82.44	4.78158
82.66	3.50745
82.88	6.71582
83.1	16.757
83.32	0.649065
83.54	7.00172
83.76	0.944864
83.98	18.9005
84.2	6.29723
84.42	5.52799
84.64	9.66696
84.86	8.69339
85.08	5.17084
85.3	10.8737
85.52	4.89043
85.74	14.0846
85.96	11.3516
86.18	15.6331
86.4	31.0127
86.62	9.98439
86.84	17.0777
87.06	10.0374
87.28	9.17966
87.5	7.10905
87.72	9.94701
87.94	10.8396
88.16	1.92839
88.38	6.64634
88.6	13.1713
88.82	14.1415
89.04	6.01941
89.26	6.81042
89.48	9.16676
89.7	4.7582
89.92	9.25036
