Measurement: Powder, Xray Data XY Processed
Mineral: Almandine
Rruff sample: R040168
Ideal chemistry: Fe^2+^_3_Al_2_(SiO_4_)_3_
Locality: Pocos Dos Cavatos, Ceara, Brazil
Source: University of Arizona Mineral Museum
Description: Dark red etched single crystal
Diffraction sample description: Powder
Measured chemistry: (Fe^2+^_1.48_Mn_1.47_Ca_0.05_)_Î£=3_Al_2.00_(Si_1.00_O_4_)_3_; trace amounts of Ti and Y
Cell parameters: a: 11.5837(1) b: 11.5837(1) c: 11.5837(1) alpha: 90. beta: 90. gamma: 90. volume: 1554.34(5) crystal system: cubic
x	intensity
5	0
5.22	17.6636
5.44	10.5055
5.66	6.56854
5.88	8.33469
6.1	28.6038
6.32	24.0129
6.54	19.6161
6.76	4.65244
6.98	10.7839
7.2	7.62788
7.42	32.2426
7.64	17.3948
7.86	18.9824
8.08	16.2567
8.3	3.74802
8.52	24.6016
8.74	1.11729
8.96	13.1921
9.18	16.3255
9.4	27.5124
9.62	21.4674
9.84	30.1602
10.06	12.5044
10.28	9.44421
10.5	27.9882
10.72	9.06722
10.94	12.2822
11.16	0.449181
11.38	12.1986
11.6	19.1413
11.82	2.90321
12.04	12.059
12.26	15.7764
12.48	28.043
12.7	13.3725
12.92	3.40299
13.14	11.6755
13.36	40.5221
13.58	30.1662
13.8	5.93718
14.02	30.4035
14.24	23.8636
14.46	19.7974
14.68	34.904
14.9	20.2105
15.12	32.8443
15.34	4.72829
15.56	34.4308
15.78	24.4389
16	26.016
16.22	3.96342
16.44	29.4463
16.66	5.95082
16.88	22.2315
17.1	6.41407
17.32	15.4705
17.54	13.7868
17.76	33.5494
17.98	5.18427
18.2	26.6741
18.42	22.1501
18.64	22.0283
18.86	44.2167
19.08	17.3666
19.3	14.0757
19.52	22.1808
19.74	5.04463
19.96	17.332
20.18	14.6552
20.4	13.0602
20.62	30.3546
20.84	37.5712
21.06	33.7662
21.28	23.4598
21.5	30.0542
21.72	46.1022
21.94	10.992
22.16	16.8742
22.38	7.81562
22.6	2.86999
22.82	17.6645
23.04	9.13469
23.26	21.4374
23.48	29.8309
23.7	26.0359
23.92	10.4088
24.14	11.9231
24.36	36.1839
24.58	22.3255
24.8	24.2452
25.02	28.5704
25.24	11.4437
25.46	11.7124
25.68	38.1864
25.9	10.4909
26.12	33.5316
26.34	5.78685
26.56	13.8161
26.78	19.0108
27	14.3566
27.22	8.64458
27.44	26.1817
27.66	14.6594
27.88	13.8286
28.1	18.2872
28.32	26.4122
28.54	31.5678
28.76	14.0074
28.98	40.1364
29.2	3.70972
29.42	9.46681
29.64	19.4297
29.86	5.0063
30.08	14.577
30.3	40.1267
30.52	14.6902
30.74	9.45748
30.96	143.102
31.18	14.3351
31.4	39.7228
31.62	40.1643
31.84	31.5658
32.06	12.9275
32.28	16.1002
32.5	20.2792
32.72	32.3682
32.94	13.595
33.16	20.1002
33.38	31.6162
33.6	18.3422
33.82	18.0885
34.04	15.2831
34.26	13.6733
34.48	28.073
34.7	311.861
34.92	24.6221
35.14	10.9237
35.36	11.7033
35.58	10.0039
35.8	14.866
36.02	29.7184
36.24	9.84054
36.46	24.5233
36.68	6.63443
36.9	37.582
37.12	2.87866
37.34	27.7534
37.56	4.70252
37.78	17.7634
38	43.2615
38.22	41.9541
38.44	22.6809
38.66	19.8677
38.88	28.9703
39.1	19.0184
39.32	3.28005
39.54	29.5054
39.76	40.003
39.98	6.55611
40.2	6.61384
40.42	15.5778
40.64	35.3932
40.86	19.5471
41.08	13.9593
41.3	6.19165
41.52	31.0931
41.74	14.584
41.96	24.9561
42.18	5.82694
42.4	26.9002
42.62	10.6945
42.84	58.4316
43.06	23.3626
43.28	21.0006
43.5	18.2252
43.72	13.3607
43.94	17.9014
44.16	0.890396
44.38	14.3421
44.6	13.7556
44.82	13.3226
45.04	2.38546
45.26	3.13245
45.48	23.0572
45.7	3.56664
45.92	3.68357
46.14	19.7713
46.36	37.6905
46.58	12.5678
46.8	19.3306
47.02	14.0521
47.24	26.4893
47.46	1.64204
47.68	12.9729
47.9	10.8656
48.12	0.06971
48.34	32.16
48.56	154.417
48.78	23.2498
49	13.3292
49.22	13.2029
49.44	4.23631
49.66	9.39961
49.88	18.9971
50.1	17.6423
50.32	10.487
50.54	7.09515
50.76	4.73252
50.98	11.0163
51.2	4.70879
51.42	18.468
51.64	20.691
51.86	17.6768
52.08	11.7892
52.3	21.6488
52.52	12.6312
52.74	18.2226
52.96	23.2273
53.18	25.0352
53.4	2.74234
53.62	13.6616
53.84	32.8158
54.06	0.004005
54.28	14.7815
54.5	34.4819
54.72	28.0125
54.94	97.8327
55.16	21.4043
55.38	24.2684
55.6	7.75792
55.82	19.0004
56.04	2.09107
56.26	1.80727
56.48	8.7855
56.7	6.52306
56.92	19.3213
57.14	23.0861
57.36	229.912
57.58	33.9061
57.8	26.2297
58.02	23.7001
58.24	6.96017
58.46	21.039
58.68	17.216
58.9	26.4611
59.12	23.0675
59.34	25.8471
59.56	27.2482
59.78	94.2941
60	42.6516
60.22	23.8831
60.44	26.3715
60.66	19.7824
60.88	9.24019
61.1	24.5729
61.32	8.43737
61.54	19.5147
61.76	16.8779
61.98	13.2823
62.2	7.5362
62.42	21.3605
62.64	21.4315
62.86	17.0263
63.08	31.2961
63.3	8.76238
63.52	19.4252
63.74	30.1216
63.96	9.68922
64.18	30.9321
64.4	10.017
64.62	16.1432
64.84	15.4205
65.06	11.6061
65.28	15.8963
65.5	5.53383
65.72	27.039
65.94	8.34166
66.16	8.27808
66.38	7.11878
66.6	19.9467
66.82	18.4337
67.04	14.6538
67.26	17.4457
67.48	0.138031
67.7	27.7167
67.92	1.37394
68.14	10.0548
68.36	17.9969
68.58	37.5085
68.8	16.2257
69.02	10.8933
69.24	23.4605
69.46	9.49113
69.68	10.3155
69.9	19.8847
70.12	11.8715
70.34	13.551
70.56	30.847
70.78	4.54887
71	16.7665
71.22	8.04929
71.44	16.2687
71.66	7.09087
71.88	21.1334
72.1	25.6087
72.32	25.1075
72.54	21.7799
72.76	14.6291
72.98	32.6067
73.2	38.0959
73.42	39.4945
73.64	22.2396
73.86	13.2467
74.08	14.154
74.3	15.2591
74.52	33.2859
74.74	20.8906
74.96	15.2517
75.18	72.1102
75.4	57.3419
75.62	24.2604
75.84	19.218
76.06	1.07572
76.28	24.0338
76.5	35.2209
76.72	19.2084
76.94	26.5206
77.16	20.4428
77.38	24.0399
77.6	9.89616
77.82	16.7099
78.04	21.8308
78.26	32.5379
78.48	12.9634
78.7	1.29562
78.92	33.1436
79.14	21.3254
79.36	35.1171
79.58	10.7801
79.8	33.0498
80.02	17.3758
80.24	41.2897
80.46	16.5875
80.68	16.2634
80.9	35.739
81.12	16.9288
81.34	30.4009
81.56	17.3306
81.78	10.3201
82	12.7314
82.22	27.3305
82.44	13.9641
82.66	23.0907
82.88	16.6514
83.1	26.5881
83.32	6.39027
83.54	30.3456
83.76	5.87337
83.98	10.7206
84.2	1.22212
84.42	8.637
84.64	17.8416
84.86	20.1476
85.08	14.7936
85.3	30.3946
85.52	0.971481
85.74	25.5207
85.96	13.2653
86.18	2.88321
86.4	15.1732
86.62	10.2209
86.84	16.9102
87.06	1.68467
87.28	18.7012
87.5	18.8816
87.72	7.14761
87.94	20.3483
88.16	4.0286
88.38	1.98309
88.6	11.9374
88.82	11.8568
89.04	12.9108
89.26	5.86279
89.48	30.4336
89.7	12.3201
89.92	28.6271
