Measurement: Powder, Xray Data XY Processed
Mineral: Almandine
Rruff sample: R050029
Ideal chemistry: Fe^2+^_3_Al_2_(SiO_4_)_3_
Locality: Barton Garnet mine, Gore Mountain, Warren County, New York, USA
Source: University of Arizona Mineral Museum
Description: Reddish brown fragments
Diffraction sample description: Powder
Measured chemistry: (Fe^2+^_1.34_Mg_1.26_Ca_0.37_Mn_0.03_)_Î£=3_Al_2.00_(Si_1.00_O_4_)_3_
Cell parameters: a: 11.5442(2) b: 11.5442(2) c: 11.5442(2) alpha: 90. beta: 90. gamma: 90. volume: 1538.48(9) crystal system: cubic
x	intensity
5	0
5.22	10.703
5.44	9.554
5.66	2.513
5.88	14.72
6.1	10.377
6.32	12.521
6.54	18.57
6.76	2.146
6.98	7.323
7.2	8.792
7.42	6.344
7.64	9.935
7.86	15.304
8.08	5.278
8.3	25.942
8.52	7.441
8.74	1.767
8.96	22.965
9.18	4.826
9.4	9.11
9.62	15.731
9.84	0.128
10.06	11.582
10.28	14.552
10.5	8.666
10.72	19.669
10.94	9.552
11.16	12.822
11.38	12.886
11.6	15.835
11.82	0.599
12.04	7.783
12.26	13.703
12.48	10.731
12.7	14.673
12.92	16.526
13.14	0.255
13.36	16.726
13.58	30.814
13.8	11.867
14.02	19.919
14.24	1.081
14.46	20.561
14.68	19.665
14.9	17.338
15.12	24.258
15.34	16.065
15.56	10.84
15.78	16.686
16	4.249
16.22	16.062
16.44	26.815
16.66	7.423
16.88	18.392
17.1	8.653
17.32	26.049
17.54	13.542
17.76	12.229
17.98	1.426
18.2	5.429
18.42	8.251
18.64	18.693
18.86	24.583
19.08	4.957
19.3	5.871
19.52	11.686
19.74	7.934
19.96	8.483
20.18	8.592
20.4	27.483
20.62	15.548
20.84	23.442
21.06	6.626
21.28	24.253
21.5	23.471
21.72	13.087
21.94	22.501
22.16	4.417
22.38	11.323
22.6	5.09
22.82	3.345
23.04	17.077
23.26	23.37
23.48	15.814
23.7	19.946
23.92	11.548
24.14	5.137
24.36	17.722
24.58	13.915
24.8	17.586
25.02	2.754
25.24	18.97
25.46	3.107
25.68	10.146
25.9	3.631
26.12	13.675
26.34	34.428
26.56	22.87
26.78	17.263
27	14.064
27.22	20.984
27.44	24.759
27.66	30.214
27.88	6.484
28.1	5.646
28.32	15.813
28.54	2.219
28.76	0.46
28.98	7.207
29.2	21.793
29.42	8.538
29.64	25.208
29.86	51.306
30.08	54.997
30.3	76.416
30.52	18.658
30.74	8.71
30.96	100.951
31.18	55.793
31.4	14.657
31.62	10.923
31.84	2.123
32.06	31.106
32.28	17.157
32.5	28.468
32.72	26.451
32.94	18.457
33.16	11.963
33.38	5.194
33.6	14.81
33.82	8.553
34.04	0.335
34.26	9.151
34.48	12.694
34.7	63.693
34.92	62.056
35.14	12.952
35.36	13.447
35.58	8.796
35.8	22.35
36.02	18.032
36.24	21.299
36.46	14.517
36.68	20.931
36.9	0.05
37.12	0.749
37.34	9.642
37.56	8.61
37.78	5.704
38	9.229
38.22	121.821
38.44	24.522
38.66	10.157
38.88	3.715
39.1	8.119
39.32	4.952
39.54	6.624
39.76	11.482
39.98	18.758
40.2	0.236
40.42	7.267
40.64	15.447
40.86	12.315
41.08	0.474
41.3	22.254
41.52	20.929
41.74	11.021
41.96	25.295
42.18	6.712
42.4	10.593
42.62	21.201
42.84	19.727
43.06	37.239
43.28	8.242
43.5	23.636
43.72	16.629
43.94	12.547
44.16	27.936
44.38	25.644
44.6	5.96
44.82	13.433
45.04	22.38
45.26	10.937
45.48	6.87
45.7	6.461
45.92	19.668
46.14	15.863
46.36	22.562
46.58	0.429
46.8	17.056
47.02	15.835
47.24	20.313
47.46	15.018
47.68	5.088
47.9	14.849
48.12	13.558
48.34	13.705
48.56	23.376
48.78	58.203
49	27.892
49.22	16.528
49.44	15.039
49.66	5.931
49.88	18.23
50.1	30.382
50.32	11.075
50.54	0.114
50.76	9.616
50.98	19.589
51.2	4.011
51.42	9.34
51.64	27.935
51.86	5.575
52.08	4.191
52.3	18.001
52.52	21.58
52.74	10.304
52.96	20.019
53.18	5.461
53.4	4.912
53.62	5.445
53.84	9.113
54.06	15.461
54.28	20.179
54.5	12.742
54.72	0.806
54.94	20.159
55.16	34.563
55.38	11.13
55.6	18.272
55.82	36.384
56.04	16.53
56.26	8.66
56.48	16.596
56.7	6.44
56.92	14.339
57.14	13.052
57.36	5.196
57.58	175.857
57.8	27.531
58.02	19.036
58.24	10.595
58.46	11.969
58.68	2.579
58.9	8.962
59.12	9.572
59.34	10.876
59.56	15.713
59.78	29.622
60	122.654
60.22	29.379
60.44	24.528
60.66	8.746
60.88	5.823
61.1	24.717
61.32	27.601
61.54	16.975
61.76	4.029
61.98	5.361
62.2	13.753
62.42	11.628
62.64	0.212
62.86	12.103
63.08	3.682
63.3	13.357
63.52	0.007
63.74	20.656
63.96	0.06
64.18	12.737
64.4	3.5
64.62	11.46
64.84	15.656
65.06	14.674
65.28	13.288
65.5	17.349
65.72	33.231
65.94	4.348
66.16	16.447
66.38	20.067
66.6	24.081
66.82	17.304
67.04	2.867
67.26	7.98
67.48	11.633
67.7	3.674
67.92	6.275
68.14	11.721
68.36	14.585
68.58	13.688
68.8	2.366
69.02	9.33
69.24	3.072
69.46	13.808
69.68	22.668
69.9	15.528
70.12	15.899
70.34	11.536
70.56	14.185
70.78	5.267
71	13.888
71.22	7.505
71.44	13.396
71.66	19.258
71.88	10.137
72.1	24.319
72.32	44.489
72.54	10.159
72.76	17.377
72.98	18.964
73.2	13.423
73.42	28.149
73.64	19.755
73.86	23.845
74.08	14.742
74.3	5.451
74.52	9.572
74.74	15.669
74.96	3.597
75.18	11.019
75.4	45.028
75.62	22.435
75.84	10.817
76.06	5.581
76.28	25.042
76.5	27.781
76.72	18.395
76.94	5.357
77.16	13.97
77.38	15.959
77.6	1.868
77.82	4.519
78.04	2.902
78.26	7.372
78.48	20.489
78.7	3.082
78.92	12.335
79.14	28.701
79.36	3.072
79.58	19.334
79.8	21.391
80.02	13.397
80.24	5.621
80.46	8.883
80.68	26.033
80.9	13.035
81.12	6.053
81.34	17.969
81.56	5.589
81.78	4.176
82	19.197
82.22	20.929
82.44	11.785
82.66	1.188
82.88	0.405
83.1	20.591
83.32	17.951
83.54	21.72
83.76	1.607
83.98	6.267
84.2	7.16
84.42	5.21
84.64	16.043
84.86	11.673
85.08	16.32
85.3	15.617
85.52	14.111
85.74	33.66
85.96	16.454
86.18	30.6
86.4	17.127
86.62	8.515
86.84	12.213
87.06	12.298
87.28	2.9
87.5	18.392
87.72	17.666
87.94	16.207
88.16	16.167
88.38	13.419
88.6	11.404
88.82	6.874
89.04	8.028
89.26	11.445
89.48	19.802
89.7	6.433
89.92	8.976
