Measurement: Powder, Xray Data XY Processed
Mineral: Almandine
Rruff sample: R070129
Ideal chemistry: Fe^2+^_3_Al_2_(SiO_4_)_3_
Locality: Wrangell, Wrangell Island, Wrangell-Petersburg Borough, Alaska, USA
Source: Michael Scott
Description: Dark red well-formed dodecahedral crystals in schist
Diffraction sample description: Powder
Measured chemistry: (Fe^2+^_2.15_Mg_0.60_Mn_0.11_Fe^3+^_0.06_Ca_0.08_)_Σ=3_Al_2.00_((Si_0.98_Al_0.02_)_Σ=1_O_4_)_3_
Cell parameters: a: 11.5291(2) b: 11.5291(2) c: 11.5291(2) alpha: 90 beta: 90 gamma: 90 volume: 1532.44(9) crystal system: cubic
x	intensity
5	0
5.22	20.2042
5.44	1.91095
5.66	12.2265
5.88	7.48439
6.1	17.8979
6.32	18.1509
6.54	51.4879
6.76	33.3872
6.98	42.6766
7.2	29.4179
7.42	23.8643
7.64	17.2717
7.86	26.6063
8.08	39.054
8.3	29.7079
8.52	30.4359
8.74	37.4083
8.96	11.2093
9.18	35.7892
9.4	27.7686
9.62	23.7579
9.84	38.7732
10.06	22.6296
10.28	32.7606
10.5	12.9304
10.72	26.4854
10.94	37.5526
11.16	27.7977
11.38	17.1627
11.6	5.12862
11.82	2.26279
12.04	12.9437
12.26	16.7391
12.48	9.86031
12.7	25.2005
12.92	30.3297
13.14	16.8516
13.36	7.72604
13.58	15.8763
13.8	31.7012
14.02	13.9828
14.24	0.367401
14.46	41.3263
14.68	19.7365
14.9	37.7105
15.12	18.4869
15.34	40.2551
15.56	37.9105
15.78	11.3196
16	10.7837
16.22	38.3956
16.44	42.7682
16.66	40.2625
16.88	48.1624
17.1	21.6393
17.32	19.3252
17.54	37.3746
17.76	18.7032
17.98	6.47554
18.2	23.131
18.42	12.9389
18.64	13.5847
18.86	44.5811
19.08	23.476
19.3	2.57228
19.52	8.92987
19.74	4.35236
19.96	19.6921
20.18	26.6099
20.4	14.0679
20.62	12.9188
20.84	14.7878
21.06	6.32201
21.28	17.5297
21.5	44.8438
21.72	7.90985
21.94	39.6532
22.16	26.8554
22.38	31.3501
22.6	11.4667
22.82	16.5343
23.04	21.3668
23.26	31.267
23.48	18.9423
23.7	4.5759
23.92	27.2365
24.14	33.9948
24.36	8.96173
24.58	30.468
24.8	7.29123
25.02	30.7906
25.24	2.62286
25.46	37.5663
25.68	15.8423
25.9	0.207565
26.12	26.1802
26.34	20.2207
26.56	8.90022
26.78	26.5894
27	2.89055
27.22	15.7019
27.44	25.205
27.66	19.8939
27.88	25.7778
28.1	24.3577
28.32	13.2722
28.54	29.5709
28.76	18.7324
28.98	20.5767
29.2	20.0501
29.42	9.94064
29.64	17.6629
29.86	36.1615
30.08	19.0397
30.3	7.83345
30.52	23.915
30.74	26.7817
30.96	133.555
31.18	64.1236
31.4	32.7332
31.62	11.8464
31.84	13.1847
32.06	22.8422
32.28	30.0028
32.5	21.3213
32.72	12.9305
32.94	26.8463
33.16	28.6705
33.38	24.5235
33.6	29.8313
33.82	20.1578
34.04	17.4828
34.26	23.8079
34.48	1.58037
34.7	104.685
34.92	100.105
35.14	31.8844
35.36	29.8629
35.58	34.7092
35.8	33.2332
36.02	16.7731
36.24	1.80458
36.46	31.8393
36.68	35.4878
36.9	33.8366
37.12	12.8138
37.34	22.0066
37.56	2.31479
37.78	29.3397
38	21.4859
38.22	308.901
38.44	25.7332
38.66	40.4854
38.88	48.2322
39.1	15.0723
39.32	27.3038
39.54	36.516
39.76	47.0877
39.98	73.5253
40.2	28.0139
40.42	14.9435
40.64	14.5028
40.86	1.77977
41.08	14.0547
41.3	9.42197
41.52	20.7628
41.74	5.55457
41.96	21.3115
42.18	15.7334
42.4	23.803
42.62	6.9146
42.84	22.5382
43.06	96.5239
43.28	24.8376
43.5	25.7808
43.72	13.7561
43.94	4.10051
44.16	42.6627
44.38	29.5687
44.6	9.34883
44.82	20.971
45.04	15.3223
45.26	19.7333
45.48	26.7437
45.7	31.513
45.92	28.9352
46.14	21.7666
46.36	55.8678
46.58	5.22734
46.8	25.0371
47.02	22.6595
47.24	11.4455
47.46	14.9078
47.68	15.6959
47.9	7.9846
48.12	26.6809
48.34	8.54988
48.56	48.2434
48.78	127.975
49	19.26
49.22	30.8393
49.44	49.4557
49.66	13.5489
49.88	11.2253
50.1	26.6744
50.32	0.114487
50.54	24.1634
50.76	23.4579
50.98	20.6485
51.2	11.0245
51.42	10.2235
51.64	2.33659
51.86	27.0272
52.08	4.04767
52.3	16.245
52.52	12.2406
52.74	11.7029
52.96	20.8952
53.18	23.3819
53.4	30.5279
53.62	12.2634
53.84	5.60384
54.06	19.2096
54.28	12.5934
54.5	8.89243
54.72	2.91415
54.94	15.645
55.16	141.037
55.38	17.4562
55.6	39.1501
55.82	23.0285
56.04	42.9902
56.26	27.6111
56.48	7.69434
56.7	11.3531
56.92	46.3603
57.14	21.1757
57.36	13.4587
57.58	161.758
57.8	74.9559
58.02	41.5378
58.24	13.8292
58.46	10.1698
58.68	13.5082
58.9	12.5696
59.12	20.8734
59.34	22.977
59.56	31.5368
59.78	16.4965
60	335.944
60.22	65.5687
60.44	40.1487
60.66	34.3879
60.88	18.5269
61.1	7.17145
61.32	22.7995
61.54	15.8231
61.76	17.4919
61.98	30.6745
62.2	26.3806
62.42	14.3892
62.64	13.4009
62.86	30.4283
63.08	43.6533
63.3	17.4046
63.52	13.6435
63.74	2.56657
63.96	3.05581
64.18	25.8977
64.4	6.58456
64.62	66.6839
64.84	21.4569
65.06	24.7852
65.28	18.9002
65.5	13.3614
65.72	29.8953
65.94	30.6011
66.16	29.5488
66.38	12.5564
66.6	11.8914
66.82	2.28047
67.04	24.7854
67.26	21.6435
67.48	23.0651
67.7	22.4146
67.92	27.3955
68.14	33.5757
68.36	3.26773
68.58	3.71402
68.8	6.17687
69.02	16.3495
69.24	23.9236
69.46	21.4223
69.68	4.01443
69.9	18.7254
70.12	15.68
70.34	28.7511
70.56	2.83344
70.78	5.53228
71	1.20258
71.22	24.1379
71.44	21.5159
71.66	2.81492
71.88	15.2884
72.1	39.8062
72.32	34.1594
72.54	13.9857
72.76	27.1588
72.98	8.22432
73.2	36.5009
73.42	70.498
73.64	36.8988
73.86	8.55869
74.08	7.76601
74.3	13.4093
74.52	5.9976
74.74	3.2518
74.96	11.3039
75.18	0.166901
75.4	12.7344
75.62	27.8813
75.84	17.8576
76.06	6.19154
76.28	22.182
76.5	12.2809
76.72	8.25777
76.94	14.6498
77.16	18.4763
77.38	33.4727
77.6	38.12
77.82	38.3829
78.04	26.458
78.26	2.38149
78.48	22.0604
78.7	42.4241
78.92	12.6556
79.14	21.0729
79.36	21.7991
79.58	1.4034
79.8	20.0262
80.02	26.9698
80.24	21.5233
80.46	20.0851
80.68	11.2298
80.9	17.6565
81.12	16.0567
81.34	7.23029
81.56	15.7758
81.78	20.512
82	10.0189
82.22	36.744
82.44	40.4932
82.66	32.2307
82.88	32.3831
83.1	45.1012
83.32	25.5007
83.54	12.3569
83.76	20.6996
83.98	19.161
84.2	9.22174
84.42	11.1485
84.64	19.6623
84.86	28.6185
85.08	19.4425
85.3	8.08575
85.52	12.4388
85.74	32.1945
85.96	23.9118
86.18	29.2882
86.4	7.9156
86.62	3.05556
86.84	5.2205
87.06	7.62224
87.28	28.1421
87.5	11.7071
87.72	19.5641
87.94	0.294083
88.16	1.29807
88.38	30.321
88.6	20.6235
88.82	3.55749
89.04	30.954
89.26	40.1065
89.48	17.3282
89.7	26.5418
89.92	5.76067
