Measurement: Powder, Xray Data XY Processed
Mineral: Andradite
Rruff sample: R060326
Ideal chemistry: Ca_3_Fe^3+^_2_(SiO_4_)_3_
Locality: Ultevis, Sweden
Source: Marcus Origlieri
Description: Reddish-brown colored druse of crystals associated with white svabite R050180
Diffraction sample description: Single crystal, powder profile is calculated
Measured chemistry: (Ca_2.98_Mn_0.02_)_Σ=3_(Fe^3+^_1.75_Al_0.21_Ti_0.04_)_Σ=2_(Si_1.00_O_4_)_3_
Cell parameters: a: 12.037(2) b: 12.037(2) c: 12.037(2) alpha: 90 beta: 90 gamma: 90 volume: 1743.9(3) crystal system: cubic
x	intensity
5	0
5.22	0
5.44	0
5.66	0
5.88	0
6.1	0
6.32	0
6.54	0
6.76	0
6.98	0
7.2	0
7.42	0
7.64	0
7.86	0
8.08	0
8.3	0
8.52	0
8.74	0
8.96	0
9.18	0
9.4	0
9.62	0
9.84	0
10.06	0
10.28	0
10.5	0
10.72	0
10.94	0
11.16	0
11.38	0
11.6	0
11.82	0
12.04	0
12.26	0
12.48	0
12.7	0
12.92	0
13.14	0
13.36	0
13.58	0
13.8	0
14.02	0
14.24	0
14.46	0
14.68	0
14.9	0
15.12	0
15.34	0
15.56	0
15.78	0
16	0
16.22	0
16.44	0
16.66	0
16.88	0
17.1	0
17.32	0
17.54	0
17.76	0
17.98	0.001
18.2	0
18.42	0
18.64	0
18.86	0
19.08	0
19.3	0
19.52	0
19.74	0
19.96	0
20.18	0
20.4	0
20.62	0
20.84	23.646
21.06	0
21.28	0
21.5	0
21.72	0
21.94	0
22.16	0
22.38	0
22.6	0
22.82	0
23.04	0
23.26	0
23.48	0
23.7	0
23.92	0
24.14	0
24.36	0
24.58	0
24.8	0
25.02	0
25.24	0
25.46	0
25.68	0
25.9	0
26.12	0
26.34	0
26.56	0
26.78	0
27	0
27.22	0
27.44	0
27.66	0.049
27.88	0
28.1	0
28.32	0
28.54	0
28.76	0
28.98	0
29.2	0
29.42	0
29.64	59.39
29.86	0.01
30.08	0
30.3	0
30.52	0
30.74	0
30.96	0
31.18	0
31.4	0
31.62	0
31.84	0
32.06	0
32.28	0
32.5	0
32.72	0
32.94	0
33.16	0.597
33.38	25.137
33.6	0
33.82	0
34.04	0
34.26	0
34.48	0
34.7	0
34.92	8.24
35.14	0.004
35.36	0
35.58	0
35.8	0
36.02	0
36.24	0
36.46	2.838
36.68	13.271
36.9	0
37.12	0
37.34	0
37.56	0
37.78	0
38	0.291
38.22	4.393
38.44	0
38.66	0
38.88	0
39.1	0
39.32	0
39.54	0
39.76	0
39.98	0
40.2	0
40.42	0
40.64	0
40.86	0
41.08	6.185
41.3	0
41.52	0
41.74	0
41.96	0
42.18	0
42.4	0.167
42.62	0.038
42.84	0
43.06	0
43.28	0
43.5	0
43.72	0
43.94	0
44.16	0
44.38	0
44.6	0
44.82	0
45.04	0
45.26	0
45.48	0
45.7	0
45.92	0
46.14	0
46.36	0.102
46.58	9.948
46.8	0
47.02	0
47.24	0
47.46	0
47.68	1.581
47.9	5.382
48.12	0
48.34	0
48.56	0
48.78	0
49	0.167
49.22	0.004
49.44	0
49.66	0
49.88	0
50.1	0
50.32	0
50.54	0
50.76	0
50.98	0
51.2	0
51.42	0.015
51.64	0.003
51.86	0
52.08	0
52.3	0
52.52	0.013
52.74	1.356
52.96	0
53.18	0
53.4	0
53.62	0
53.84	0.398
54.06	0.003
54.28	0
54.5	0
54.72	0
54.94	18.443
55.16	5.052
55.38	0
55.6	0
55.82	0
56.04	0.245
56.26	0.658
56.48	0
56.7	0
56.92	0
57.14	3.338
57.36	30.279
57.58	0
57.8	0
58.02	0
58.24	0
58.46	0
58.68	0
58.9	0
59.12	0
59.34	0
59.56	0
59.78	0
60	0
60.22	0
60.44	0.025
60.66	0.108
60.88	0
61.1	0
61.32	0
61.54	4.099
61.76	5.571
61.98	0
62.2	0
62.42	0
62.64	1.382
62.86	0.477
63.08	0
63.3	0
63.52	0
63.74	0.061
63.96	0.005
64.18	0
64.4	0
64.62	0.002
64.84	0.053
65.06	0.001
65.28	0
65.5	0
65.72	0.698
65.94	1.07
66.16	0
66.38	0
66.6	0
66.82	0.233
67.04	0.056
67.26	0
67.48	0
67.7	0
67.92	0
68.14	0
68.36	0
68.58	0
68.8	0.154
69.02	0.109
69.24	0
69.46	0
69.68	0.003
69.9	3.29
70.12	0.521
70.34	0
70.56	0
70.78	0
71	0
71.22	0
71.44	0
71.66	0.001
71.88	4.022
72.1	1.074
72.32	0
72.54	0
72.76	0.463
72.98	0.308
73.2	0
73.42	0
73.64	0.007
73.86	1.647
74.08	0.592
74.3	0
74.52	0
74.74	1.422
74.96	0.734
75.18	0
75.4	0
75.62	0
75.84	0
76.06	0
76.28	0
76.5	0
76.72	0.306
76.94	0.164
77.16	0
77.38	0
77.6	0.354
77.82	0.119
78.04	0
78.26	0
78.48	0.005
78.7	0.309
78.92	0.295
79.14	0
79.36	0
79.58	0.004
79.8	0.002
80.02	0
80.24	0
80.46	0.081
80.68	0.014
80.9	0.001
81.12	0
81.34	0.001
81.56	0.03
81.78	0.047
82	0
82.22	0
82.44	0.379
82.66	0.192
82.88	0
83.1	0
83.32	0
83.54	0
83.76	0
83.98	0
84.2	0.008
84.42	0.014
84.64	0.055
84.86	0
85.08	0
85.3	0
85.52	0
85.74	0
85.96	0
86.18	0.01
86.4	0.002
86.62	0
86.84	0
87.06	1.699
87.28	0.056
87.5	0.4
87.72	0
87.94	0
88.16	0.014
88.38	0.045
88.6	0
88.82	0
89.04	11.682
89.26	4.881
89.48	0
89.7	0
89.92	0.29
