Measurement: Powder, Xray Data XY Processed
Mineral: Anorthite
Rruff sample: R050104
Ideal chemistry: CaAl_2_Si_2_O_8_
Locality: unknown
Source: Rock Currier
Description: Iridescent slab, labradorite/andesine
Diffraction sample description: Powder
Measured chemistry: Ca_0.50_Na_0.47_K_0.03_Al_1.50_Si_2.50_O_8_
Cell parameters: a: 8.1749(3) b: 12.859(2) c: 7.1125(4) alpha: 93.52(1) beta: 116.245(6) gamma: 89.93(1) volume: 669.04(9) crystal system: triclinic
x	intensity
5	0
5.22	10.678
5.44	13.271
5.66	5.154
5.88	17.405
6.1	10.577
6.32	15.931
6.54	23.83
6.76	13.553
6.98	2.386
7.2	0.341
7.42	9.269
7.64	1.213
7.86	8.303
8.08	3.043
8.3	10.32
8.52	13.027
8.74	3.467
8.96	7.909
9.18	4.369
9.4	13.587
9.62	15.639
9.84	3.666
10.06	11.758
10.28	6.45
10.5	4.491
10.72	7.39
10.94	7.408
11.16	7.623
11.38	0.313
11.6	5.528
11.82	12.593
12.04	2.766
12.26	6.761
12.48	8.689
12.7	14.63
12.92	16.566
13.14	9.743
13.36	11.786
13.58	15.412
13.8	23.2
14.02	18.164
14.24	6.423
14.46	6.271
14.68	4.386
14.9	6.368
15.12	8.531
15.34	9.682
15.56	4.598
15.78	12.405
16	3.542
16.22	0.609
16.44	6.798
16.66	4.533
16.88	9.589
17.1	8.509
17.32	6.026
17.54	1.989
17.76	8.032
17.98	11.028
18.2	0.17
18.42	5.256
18.64	7.366
18.86	9.26
19.08	11.722
19.3	8.71
19.52	3.69
19.74	11.339
19.96	0.236
20.18	0.746
20.4	3.006
20.62	4.672
20.84	2.664
21.06	16.755
21.28	2.792
21.5	12.262
21.72	11.205
21.94	35.797
22.16	13.546
22.38	0.262
22.6	3.765
22.82	15.603
23.04	9.492
23.26	9.388
23.48	9.261
23.7	190.111
23.92	18.349
24.14	0.341
24.36	42.389
24.58	188.269
24.8	2.356
25.02	0.62
25.24	1.096
25.46	3.122
25.68	40.558
25.9	12.555
26.12	4.386
26.34	1.417
26.56	42.24
26.78	4.977
27	4.661
27.22	1.327
27.44	15.924
27.66	72.638
27.88	392.588
28.1	405.496
28.32	18.263
28.54	39.945
28.76	5.885
28.98	12.073
29.2	4.086
29.42	12.051
29.64	43.061
29.86	11.017
30.08	2.427
30.3	23.136
30.52	206.9
30.74	30.19
30.96	0.196
31.18	9.306
31.4	10.069
31.62	22.75
31.84	8.7
32.06	6.569
32.28	2.396
32.5	7.434
32.72	8.976
32.94	5.508
33.16	10.28
33.38	3.698
33.6	10.731
33.82	48.552
34.04	5.482
34.26	5.165
34.48	1.785
34.7	0.543
34.92	6.273
35.14	6.238
35.36	6.476
35.58	39.927
35.8	15.487
36.02	14.772
36.24	4.78
36.46	4.869
36.68	27.891
36.9	15.062
37.12	6.66
37.34	16.808
37.56	5.871
37.78	25.5
38	1.665
38.22	1.57
38.44	3.214
38.66	3.097
38.88	4.04
39.1	3.528
39.32	21.349
39.54	5.802
39.76	82.706
39.98	1.616
40.2	2.686
40.42	4.127
40.64	61.276
40.86	5.397
41.08	0.387
41.3	9.169
41.52	1.625
41.74	7.558
41.96	2.538
42.18	7.224
42.4	15.298
42.62	31.221
42.84	7.269
43.06	33.197
43.28	11.099
43.5	2.534
43.72	4.655
43.94	8.66
44.16	9.616
44.38	7.594
44.6	13.689
44.82	15.446
45.04	10.236
45.26	10.636
45.48	15.897
45.7	14.828
45.92	5.515
46.14	10.48
46.36	2.471
46.58	3.568
46.8	9.35
47.02	7.745
47.24	10.724
47.46	12.71
47.68	3.175
47.9	0.687
48.12	8.001
48.34	28.482
48.56	23.148
48.78	12.594
49	0.906
49.22	12.38
49.44	9.83
49.66	4.396
49.88	55.083
50.1	22.917
50.32	81.442
50.54	7.652
50.76	27.217
50.98	18.162
51.2	5.063
51.42	1.596
51.64	32.197
51.86	7.15
52.08	5.7
52.3	18.07
52.52	17.388
52.74	2.666
52.96	8.819
53.18	15.796
53.4	14.137
53.62	0.873
53.84	5.333
54.06	2.581
54.28	5.709
54.5	9.882
54.72	7.128
54.94	7.378
55.16	7.577
55.38	4.759
55.6	8.162
55.82	4.207
56.04	8.204
56.26	11.126
56.48	10.928
56.7	1.515
56.92	8.708
57.14	12.616
57.36	5.435
57.58	8.437
57.8	8.358
58.02	2.95
58.24	11.724
58.46	8.088
58.68	2.705
58.9	7.231
59.12	0.992
59.34	4.953
59.56	5.131
59.78	12.402
60	15.283
60.22	14.53
60.44	6.703
60.66	1.878
60.88	0.313
61.1	4.429
61.32	2.401
61.54	9.339
61.76	0.594
61.98	8.082
62.2	13.084
62.42	16.988
62.64	25.717
62.86	6.461
63.08	4.047
63.3	10.267
63.52	9.646
63.74	13.672
63.96	8.729
64.18	0.303
64.4	5.201
64.62	1.942
64.84	1.116
65.06	5.137
65.28	1.16
65.5	0.441
65.72	12.271
65.94	4.871
66.16	4.13
66.38	9.134
66.6	5.003
66.82	12.453
67.04	7.776
67.26	4.724
67.48	1.477
67.7	14.241
67.92	8.764
68.14	1.537
68.36	5.366
68.58	4.822
68.8	0.959
69.02	22.32
69.24	16.633
69.46	6.18
69.68	3.765
69.9	1.889
70.12	6.512
70.34	1.834
70.56	2.207
70.78	7.882
71	0.393
71.22	8.671
71.44	23.751
71.66	7.911
71.88	4.102
72.1	7.129
72.32	5.34
72.54	2.372
72.76	6.47
72.98	8.538
73.2	10.422
73.42	7.21
73.64	4.815
73.86	5.561
74.08	3.24
74.3	7.025
74.52	3.824
74.74	17.843
74.96	9.014
75.18	9.87
75.4	7.842
75.62	11.949
75.84	5.089
76.06	2.141
76.28	3.159
76.5	4.184
76.72	3.618
76.94	5.324
77.16	41.266
77.38	10.042
77.6	9.01
77.82	4.166
78.04	4.065
78.26	7.021
78.48	20.244
78.7	4.514
78.92	0.997
79.14	2.88
79.36	7.316
79.58	1.793
79.8	2.36
80.02	3.646
80.24	5.05
80.46	12.029
80.68	7.131
80.9	5.339
81.12	10.291
81.34	1.962
81.56	4.623
81.78	1.403
82	0.977
82.22	5.579
82.44	5.295
82.66	1.99
82.88	1.87
83.1	8.799
83.32	5.712
83.54	5.959
83.76	3.085
83.98	7.273
84.2	3.523
84.42	5.836
84.64	0.898
84.86	3.189
85.08	2.328
85.3	3.501
85.52	7.717
85.74	3.904
85.96	12.94
86.18	8.023
86.4	2.06
86.62	4.193
86.84	4.078
87.06	6.016
87.28	11.146
87.5	6.099
87.72	5.067
87.94	3.831
88.16	3.637
88.38	4.442
88.6	5.543
88.82	6.643
89.04	3.606
89.26	3.475
89.48	8.755
89.7	5.281
89.92	7.265
