Measurement: Powder, Xray Data XY Processed
Mineral: Anorthite
Rruff sample: R060221
Ideal chemistry: CaAl_2_Si_2_O_8_
Locality: Pinacate lavafield, Sonora, Mexico
Source: Rock Currier
Description: Light tan transparent fragment
Diffraction sample description: Powder
Measured chemistry: (Ca_0.65_Na_0.34_K_0.01_)(Al_1.66_Fe^3+^_0.01_)Si_2.33_O_8_
Cell parameters: a: 8.1791(6) b: 12.8798(6) c: 7.1032(4) alpha: 93.450(6) beta: 116.034(7) gamma: 90.512(5) volume: 670.63(7) crystal system: triclinic
x	intensity
5	0
5.22	14.487
5.44	8.331
5.66	14.873
5.88	8.857
6.1	14.274
6.32	16.792
6.54	17.386
6.76	7.962
6.98	1.735
7.2	9.479
7.42	2.199
7.64	3.906
7.86	3.493
8.08	6.04
8.3	13.696
8.52	1.938
8.74	3.291
8.96	1.256
9.18	8.622
9.4	2.543
9.62	3.487
9.84	7.681
10.06	3.722
10.28	0.893
10.5	12.242
10.72	5.166
10.94	4.59
11.16	4.584
11.38	9.871
11.6	8.997
11.82	14.228
12.04	4.382
12.26	2.372
12.48	1.562
12.7	5.52
12.92	10.248
13.14	1.06
13.36	1.734
13.58	0.372
13.8	2.498
14.02	0.187
14.24	3.025
14.46	2.024
14.68	10.139
14.9	6.35
15.12	8.488
15.34	3.669
15.56	1.769
15.78	3.979
16	0.113
16.22	6.164
16.44	5.416
16.66	1.465
16.88	8.384
17.1	2.328
17.32	6.117
17.54	7.976
17.76	0.857
17.98	1.651
18.2	3.606
18.42	0.283
18.64	4.772
18.86	7.762
19.08	1.881
19.3	6.986
19.52	2.992
19.74	7.013
19.96	12.004
20.18	3.163
20.4	5.391
20.62	6.363
20.84	10.171
21.06	10.907
21.28	5.892
21.5	1.704
21.72	9.379
21.94	17.178
22.16	15.938
22.38	4.631
22.6	3.21
22.82	59.846
23.04	2.726
23.26	3.675
23.48	7.556
23.7	165.29
23.92	9.563
24.14	0.159
24.36	4.819
24.58	71.821
24.8	0.009
25.02	3.237
25.24	2.569
25.46	6.353
25.68	26.373
25.9	1.953
26.12	17.649
26.34	5.175
26.56	32.619
26.78	7.32
27	6.952
27.22	4.586
27.44	18.131
27.66	33.504
27.88	233.592
28.1	204.779
28.32	17.259
28.54	83.341
28.76	9.517
28.98	5.371
29.2	0.321
29.42	0.055
29.64	7.241
29.86	4.641
30.08	8.179
30.3	84.351
30.52	31.141
30.74	17.153
30.96	0.563
31.18	4.624
31.4	2.907
31.62	47.227
31.84	17.56
32.06	6.951
32.28	4.195
32.5	0.799
32.72	1.714
32.94	6.485
33.16	3.722
33.38	8.958
33.6	0.049
33.82	63.136
34.04	5.124
34.26	11.038
34.48	5.891
34.7	2.735
34.92	2.423
35.14	6.618
35.36	9.467
35.58	19.188
35.8	72.87
36.02	0.688
36.24	1.25
36.46	9.214
36.68	2.049
36.9	17.977
37.12	7.092
37.34	9.223
37.56	5.17
37.78	6.215
38	5.388
38.22	10.971
38.44	2.007
38.66	2.963
38.88	1.971
39.1	7.373
39.32	1.388
39.54	7.542
39.76	7.656
39.98	6.953
40.2	4.941
40.42	16.932
40.64	5.415
40.86	3.303
41.08	3.253
41.3	6.029
41.52	6.587
41.74	1.515
41.96	7.3
42.18	10.046
42.4	49.651
42.62	17.883
42.84	1.834
43.06	29.234
43.28	8.391
43.5	0.407
43.72	2.706
43.94	6.755
44.16	0.666
44.38	6.63
44.6	3.597
44.82	8.372
45.04	6.225
45.26	3.123
45.48	2.856
45.7	12.022
45.92	2.205
46.14	12.076
46.36	0.48
46.58	1.325
46.8	1.959
47.02	8.335
47.24	9.42
47.46	4.457
47.68	5.55
47.9	1.65
48.12	12.213
48.34	12.876
48.56	17.628
48.78	2.206
49	4.24
49.22	2.637
49.44	21.249
49.66	24.014
49.88	5.959
50.1	10.722
50.32	2.245
50.54	5.079
50.76	29.413
50.98	8.338
51.2	7.059
51.42	4.873
51.64	16.921
51.86	1.037
52.08	10.246
52.3	7.108
52.52	7.258
52.74	7.799
52.96	4.34
53.18	12.351
53.4	10.664
53.62	9.009
53.84	0.778
54.06	3.625
54.28	3.974
54.5	5.221
54.72	2.513
54.94	2.865
55.16	1.323
55.38	5.457
55.6	9.338
55.82	0.51
56.04	5.461
56.26	9.346
56.48	6.305
56.7	7.14
56.92	9.982
57.14	17.765
57.36	1.614
57.58	11.566
57.8	0.511
58.02	7.414
58.24	13.486
58.46	0.652
58.68	9.676
58.9	5.622
59.12	5.545
59.34	2.337
59.56	4.932
59.78	4.035
60	7.178
60.22	3.29
60.44	0.311
60.66	2.612
60.88	5.506
61.1	0.386
61.32	2.316
61.54	1.758
61.76	6.062
61.98	5.806
62.2	17.604
62.42	0.544
62.64	23.602
62.86	6.199
63.08	7.064
63.3	4.894
63.52	4.944
63.74	1.098
63.96	14.236
64.18	12.339
64.4	16.57
64.62	9.675
64.84	7.447
65.06	2.422
65.28	1.53
65.5	0.858
65.72	4.942
65.94	11.94
66.16	8.856
66.38	8.677
66.6	1.365
66.82	5.187
67.04	7.051
67.26	6.929
67.48	10.778
67.7	11.542
67.92	2.354
68.14	9.291
68.36	4.282
68.58	12.159
68.8	3.223
69.02	14.307
69.24	5.477
69.46	19.084
69.68	8.227
69.9	3.598
70.12	14.592
70.34	8.863
70.56	5.011
70.78	1.098
71	3.56
71.22	4.767
71.44	6.003
71.66	1.093
71.88	3.754
72.1	2.704
72.32	3.594
72.54	4.69
72.76	1.612
72.98	6.39
73.2	10.246
73.42	0.83
73.64	0.632
73.86	3.421
74.08	11.44
74.3	0.657
74.52	6.719
74.74	6.692
74.96	8.835
75.18	4.364
75.4	1.45
75.62	7.871
75.84	5.956
76.06	0.969
76.28	2.056
76.5	4.821
76.72	8.603
76.94	3.499
77.16	3.465
77.38	7.072
77.6	2.826
77.82	4.694
78.04	5.659
78.26	8.847
78.48	5.064
78.7	4.241
78.92	0.742
79.14	3.475
79.36	8.642
79.58	8.778
79.8	0.916
80.02	2.083
80.24	7.102
80.46	4.296
80.68	4.197
80.9	4.505
81.12	2.412
81.34	5.434
81.56	5.304
81.78	4.189
82	3.02
82.22	7.839
82.44	6.604
82.66	4.574
82.88	13.394
83.1	9.34
83.32	5.092
83.54	8.04
83.76	3.914
83.98	4.994
84.2	6.155
84.42	1.13
84.64	4.262
84.86	5.344
85.08	3.319
85.3	6.361
85.52	4.42
85.74	11.35
85.96	0.519
86.18	7.955
86.4	6.827
86.62	4.065
86.84	2.179
87.06	8.275
87.28	2.342
87.5	10.399
87.72	2.535
87.94	2.503
88.16	4.465
88.38	1.452
88.6	5.214
88.82	4.318
89.04	2.236
89.26	2.245
89.48	10.284
89.7	7.486
89.92	1.827
