Measurement: Powder, Xray Data XY Processed
Mineral: Beryl
Rruff sample: R050305
Ideal chemistry: Be_3_Al_2_Si_6_O_18_
Locality: Conselheiro Pena, Minas Gerais, Brazil
Source: Eugene Schlepp
Description: Light blue fragment, variety aquamarine
Diffraction sample description: Powder
Measured chemistry: (Be_0.91_Li_0.09_)_3_(Al_0.99_Fe^3+^_0.01_)_2_Si_6.00_O_18_Î‡Na_0.27_
Cell parameters: a: 9.2209(3) b: 9.2209(3) c: 9.2214(6) alpha: 90 beta: 90 gamma: 120 volume: 679.01(4) crystal system: hexagonal
x	intensity
5	0
5.22	7.64248
5.44	8.08981
5.66	0.825838
5.88	17.8121
6.1	12.7726
6.32	12.839
6.54	14.3102
6.76	13.7141
6.98	11.1995
7.2	6.30138
7.42	2.99851
7.64	2.15921
7.86	1.63794
8.08	10.1094
8.3	0.084539
8.52	1.58562
8.74	2.87054
8.96	13.1807
9.18	5.65948
9.4	6.39442
9.62	11.8896
9.84	8.65547
10.06	33.1464
10.28	3.45433
10.5	3.22353
10.72	13.8517
10.94	27.5106
11.16	1518.16
11.38	25.1892
11.6	0.796178
11.82	17.8203
12.04	5.00004
12.26	2.5352
12.48	3.10052
12.7	5.53515
12.92	11.1451
13.14	8.69223
13.36	16.1432
13.58	3.82294
13.8	5.32408
14.02	10.6887
14.24	12.4121
14.46	3.64897
14.68	14.5886
14.9	3.72958
15.12	12.6077
15.34	9.57952
15.56	3.90267
15.78	8.03612
16	3.02921
16.22	10.0401
16.44	6.01321
16.66	8.02701
16.88	0.229997
17.1	3.39463
17.32	11.6997
17.54	6.0715
17.76	5.03007
17.98	5.69451
18.2	1.4018
18.42	5.22221
18.64	0.407225
18.86	15.4845
19.08	11.412
19.3	656.223
19.52	17.1237
19.74	8.89376
19.96	0.023472
20.18	2.13523
20.4	3.41864
20.62	5.39655
20.84	6.38073
21.06	8.14277
21.28	7.92949
21.5	6.91337
21.72	7.87359
21.94	1.85224
22.16	17.2949
22.38	199.823
22.6	18.0318
22.82	5.85314
23.04	4.20172
23.26	1.46808
23.48	1.52673
23.7	0.593757
23.92	9.9626
24.14	3.18049
24.36	1.81538
24.58	3.63763
24.8	14.5742
25.02	5.63299
25.24	0.655974
25.46	5.21604
25.68	5.79977
25.9	4.52844
26.12	2.74337
26.34	0.567466
26.56	5.26248
26.78	13.1544
27	8.04342
27.22	14.9174
27.44	1167.05
27.66	37.1663
27.88	7.39213
28.1	9.60114
28.32	6.23066
28.54	2.37133
28.76	0.426709
28.98	1.55508
29.2	0.433665
29.42	10.5319
29.64	335.42
29.86	10.5275
30.08	2.95804
30.3	3.82375
30.52	4.53078
30.74	4.04085
30.96	7.00486
31.18	263.39
31.4	49.7217
31.62	7.26809
31.84	8.59695
32.06	10.7993
32.28	9.19402
32.5	14.6984
32.72	3.01919
32.94	6.433
33.16	8.65733
33.38	8.02285
33.6	4.07041
33.82	22.9323
34.04	1.72203
34.26	11.655
34.48	3.64666
34.7	9.64119
34.92	7.62982
35.14	8.70897
35.36	3.82983
35.58	170.024
35.8	14.906
36.02	0.054799
36.24	8.05206
36.46	14.1933
36.68	6.31706
36.9	3.42709
37.12	2.614
37.34	6.95638
37.56	3.1357
37.78	6.14446
38	5.15727
38.22	3.22406
38.44	4.25959
38.66	8.17462
38.88	5.42174
39.1	79.6607
39.32	6.65655
39.54	0.481405
39.76	3.1724
39.98	0.834011
40.2	1.20582
40.42	3.11329
40.64	9.02013
40.86	31.7997
41.08	7.71709
41.3	8.50958
41.52	10.508
41.74	2.9376
41.96	54.9946
42.18	16.0983
42.4	0.086851
42.62	1.78548
42.84	5.86752
43.06	10.9773
43.28	2.49706
43.5	12.5755
43.72	5.65731
43.94	30.5946
44.16	9.21818
44.38	9.15011
44.6	6.04075
44.82	4.98262
45.04	0.077688
45.26	9.00129
45.48	257.848
45.7	21.6706
45.92	6.66733
46.14	5.58929
46.36	3.53247
46.58	2.25959
46.8	4.01671
47.02	7.0379
47.24	9.08854
47.46	0.974057
47.68	2.17392
47.9	2.9054
48.12	0.111217
48.34	13.1349
48.56	6.21469
48.78	2.81991
49	6.65479
49.22	0.373554
49.44	6.30244
49.66	10.1255
49.88	15.904
50.1	9.86594
50.32	3.74696
50.54	5.40345
50.76	11.5539
50.98	56.5807
51.2	8.4966
51.42	0.836564
51.64	5.03592
51.86	0.06805
52.08	7.08168
52.3	11.0365
52.52	331.785
52.74	66.7887
52.96	11.2598
53.18	5.15433
53.4	11.3034
53.62	32.5688
53.84	4.98603
54.06	6.55382
54.28	0.892113
54.5	3.26557
54.72	12.9293
54.94	0.689661
55.16	8.48242
55.38	5.13961
55.6	8.7225
55.82	8.62408
56.04	3.01662
56.26	8.90706
56.48	174.263
56.7	18.8772
56.92	9.46401
57.14	4.3035
57.36	4.07003
57.58	20.9414
57.8	39.8859
58.02	12.9862
58.24	7.1033
58.46	1.24602
58.68	80.4523
58.9	18.653
59.12	3.85359
59.34	4.96489
59.56	7.2572
59.78	2.277
60	10.2791
60.22	45.2596
60.44	18.1597
60.66	1.15606
60.88	4.37034
61.1	54.526
61.32	77.4812
61.54	3.88388
61.76	5.04226
61.98	10.0662
62.2	2.12843
62.42	10.4899
62.64	1.38856
62.86	0.662748
63.08	9.6787
63.3	2.82281
63.52	2.65329
63.74	11.6794
63.96	19.2027
64.18	7.02086
64.4	2.36273
64.62	6.08602
64.84	2.9314
65.06	91.9577
65.28	23.0275
65.5	8.93623
65.72	1.98928
65.94	24.0216
66.16	7.16445
66.38	3.23954
66.6	7.31588
66.82	6.50713
67.04	6.04499
67.26	3.91472
67.48	0.156784
67.7	0.212209
67.92	5.82552
68.14	2.85185
68.36	7.79769
68.58	18.961
68.8	12.189
69.02	13.4508
69.24	1.69747
69.46	4.93776
69.68	1.85214
69.9	8.33839
70.12	3.78728
70.34	2.01286
70.56	7.98368
70.78	14.0723
71	11.9672
71.22	0.179319
71.44	1.33666
71.66	1.60543
71.88	5.35991
72.1	2.39679
72.32	7.14654
72.54	4.2154
72.76	17.8524
72.98	9.51973
73.2	2.2191
73.42	2.84752
73.64	0.558585
73.86	6.97886
74.08	18.7303
74.3	24.3996
74.52	10.2593
74.74	0.595961
74.96	65.3579
75.18	40.644
75.4	11.0669
75.62	2.39341
75.84	6.92929
76.06	8.24143
76.28	7.61364
76.5	6.01788
76.72	8.44628
76.94	6.11698
77.16	7.39524
77.38	8.0232
77.6	0.955636
77.82	0.866501
78.04	4.63443
78.26	1.5018
78.48	10.3528
78.7	2.47624
78.92	12.4247
79.14	13.4314
79.36	102.705
79.58	49.6498
79.8	0.210313
80.02	5.86421
80.24	6.15157
80.46	1.2033
80.68	2.3018
80.9	11.5252
81.12	7.62089
81.34	4.58036
81.56	15.5764
81.78	7.69423
82	4.81727
82.22	6.03771
82.44	5.17859
82.66	6.85905
82.88	8.78081
83.1	1.3256
83.32	1.44257
83.54	0.847857
83.76	9.93135
83.98	34.764
84.2	34.5085
84.42	5.63006
84.64	0.742582
84.86	7.52202
85.08	8.62585
85.3	13.6754
85.52	3.92339
85.74	0.89021
85.96	3.05104
86.18	2.05986
86.4	3.00022
86.62	7.03526
86.84	3.81875
87.06	14.6152
87.28	3.64339
87.5	0.631792
87.72	0.379637
87.94	8.82273
88.16	4.90238
88.38	6.18009
88.6	1.42374
88.82	2.70492
89.04	2.89039
89.26	5.25359
89.48	4.69431
89.7	1.65711
89.92	5.84243
