Measurement: Powder, Xray Data XY Processed
Mineral: Beryl
Rruff sample: R050347
Ideal chemistry: Be_3_Al_2_Si_6_O_18_
Locality: North Keystone, South Dakota, USA
Source: California Institute of Technology
Description: Colorless fragment
Diffraction sample description: Powder
Measured chemistry: (Be_0.96_Li_0.04_)_3_Al_2.00_(Si_0.99_Al_0.01_)_6_O_18_ Î‡0.17Na
Cell parameters: a: 9.2154(3) b: 9.2154(3) c: 9.2047(5) alpha: 90. beta: 90. gamma: 120. volume: 676.97(4) crystal system: hexagonal
x	intensity
5	0
5.22	5.77696
5.44	16.2834
5.66	11.9315
5.88	15.4656
6.1	11.3671
6.32	8.48035
6.54	18.7364
6.76	4.78398
6.98	10.3565
7.2	17.1535
7.42	0.900532
7.64	7.59422
7.86	7.72779
8.08	12.6726
8.3	1.3921
8.52	16.3092
8.74	10.1352
8.96	5.38598
9.18	1.31362
9.4	9.11734
9.62	9.85506
9.84	10.5599
10.06	24.1694
10.28	6.51118
10.5	4.05893
10.72	12.5892
10.94	53.4703
11.16	1378.06
11.38	23.2672
11.6	10.9686
11.82	3.85459
12.04	6.10122
12.26	2.38962
12.48	14.7481
12.7	6.34375
12.92	7.7531
13.14	15.8242
13.36	5.19124
13.58	10.5602
13.8	0.794251
14.02	8.48346
14.24	1.72805
14.46	0.010919
14.68	7.225
14.9	16.4137
15.12	2.52093
15.34	0.149064
15.56	0.794561
15.78	5.2834
16	4.34718
16.22	11.544
16.44	9.27501
16.66	5.45974
16.88	6.43974
17.1	4.46886
17.32	1.5872
17.54	0.380469
17.76	10.0206
17.98	4.89626
18.2	4.75158
18.42	1.52482
18.64	1.15538
18.86	8.11766
19.08	10.295
19.3	384.128
19.52	21.2709
19.74	14.6925
19.96	7.81787
20.18	13.894
20.4	4.9757
20.62	3.10811
20.84	1.79992
21.06	8.06965
21.28	4.68473
21.5	9.53671
21.72	5.49475
21.94	0.541969
22.16	18.0222
22.38	219.135
22.6	4.32072
22.82	3.22472
23.04	0.170609
23.26	4.15106
23.48	5.43045
23.7	5.47616
23.92	7.71645
24.14	3.95842
24.36	2.86327
24.58	7.7629
24.8	4.52806
25.02	1.18646
25.24	16.1181
25.46	7.99576
25.68	8.71183
25.9	1.20592
26.12	1.75549
26.34	4.21738
26.56	12.5381
26.78	22.219
27	6.94812
27.22	46.9227
27.44	1115.32
27.66	43.8035
27.88	15.764
28.1	9.77844
28.32	7.92106
28.54	3.03709
28.76	9.1057
28.98	8.09255
29.2	5.21872
29.42	2.77992
29.64	356.899
29.86	30.4022
30.08	1.73042
30.3	4.68661
30.52	11.7296
30.74	16.7639
30.96	13.945
31.18	348.574
31.4	93.0769
31.62	16.601
31.84	10.2368
32.06	3.69565
32.28	4.15431
32.5	2.67852
32.72	8.11604
32.94	1.45136
33.16	8.62161
33.38	6.07327
33.6	0.760554
33.82	21.5227
34.04	0.382654
34.26	7.11402
34.48	0.943256
34.7	2.82485
34.92	5.59032
35.14	10.2984
35.36	21.5961
35.58	136.908
35.8	18.0063
36.02	3.07704
36.24	3.32788
36.46	2.64014
36.68	2.08008
36.9	7.27067
37.12	6.73348
37.34	9.00965
37.56	1.53606
37.78	14.436
38	10.2925
38.22	4.28775
38.44	11.3845
38.66	2.59327
38.88	5.79552
39.1	37.9507
39.32	22.8057
39.54	3.59774
39.76	4.4749
39.98	8.03442
40.2	1.11717
40.42	0.985321
40.64	7.93366
40.86	37.7128
41.08	1.26279
41.3	4.05023
41.52	5.12961
41.74	5.14682
41.96	39.3137
42.18	23.3078
42.4	5.30434
42.62	4.10319
42.84	2.90706
43.06	9.0272
43.28	8.01958
43.5	9.2794
43.72	2.43237
43.94	23.436
44.16	7.328
44.38	4.18211
44.6	11.2358
44.82	3.32971
45.04	0.595706
45.26	7.95513
45.48	116.149
45.7	37.3302
45.92	10.2415
46.14	7.2739
46.36	4.2033
46.58	9.58816
46.8	4.72335
47.02	12.7894
47.24	7.85587
47.46	12.6634
47.68	4.73149
47.9	2.55452
48.12	5.59069
48.34	4.48511
48.56	6.38678
48.78	6.25737
49	2.82124
49.22	2.85925
49.44	5.04838
49.66	6.87501
49.88	19.7243
50.1	10.4023
50.32	4.6444
50.54	5.64776
50.76	17.7288
50.98	54.4419
51.2	4.28336
51.42	5.12356
51.64	0.680089
51.86	0.128201
52.08	5.16172
52.3	7.17008
52.52	72.0479
52.74	89.6028
52.96	11.3902
53.18	7.53611
53.4	6.81237
53.62	47.1391
53.84	12.6274
54.06	12.433
54.28	5.0791
54.5	4.16432
54.72	4.63835
54.94	8.92595
55.16	3.08842
55.38	0.01874
55.6	2.76636
55.82	2.51119
56.04	2.63846
56.26	11.2719
56.48	68.4052
56.7	63.9798
56.92	6.5355
57.14	8.46193
57.36	3.23707
57.58	24.1248
57.8	44.0995
58.02	8.3065
58.24	5.55525
58.46	6.87764
58.68	28.0922
58.9	36.3086
59.12	4.40663
59.34	1.56978
59.56	1.70879
59.78	4.27668
60	4.21654
60.22	15.1338
60.44	34.8888
60.66	2.82798
60.88	3.42903
61.1	18.4821
61.32	46.4605
61.54	22.592
61.76	0.12373
61.98	0.403048
62.2	2.7473
62.42	11.0571
62.64	4.29514
62.86	1.56119
63.08	1.0976
63.3	11.844
63.52	6.20398
63.74	4.14973
63.96	58.0628
64.18	6.63109
64.4	4.54522
64.62	1.53731
64.84	7.52458
65.06	83.5324
65.28	80.7973
65.5	0.099083
65.72	2.00879
65.94	6.16686
66.16	12.3009
66.38	3.59574
66.6	7.6464
66.82	13.6925
67.04	1.55027
67.26	2.43981
67.48	0.465092
67.7	0.262953
67.92	8.56444
68.14	6.76317
68.36	8.51531
68.58	57.5732
68.8	29.6865
69.02	7.34215
69.24	9.48254
69.46	1.6604
69.68	5.88535
69.9	7.11023
70.12	2.38247
70.34	0.666317
70.56	8.64118
70.78	0.874589
71	9.89553
71.22	6.86206
71.44	8.43992
71.66	8.38239
71.88	5.24056
72.1	1.0501
72.32	6.18027
72.54	2.15091
72.76	6.91911
72.98	1.24238
73.2	3.58152
73.42	4.16388
73.64	2.61035
73.86	9.03145
74.08	13.5609
74.3	25.2683
74.52	25.0662
74.74	1.43335
74.96	20.3654
75.18	24.6558
75.4	22.312
75.62	17.0892
75.84	2.51354
76.06	5.0303
76.28	4.56972
76.5	6.12339
76.72	10.737
76.94	9.23113
77.16	4.64231
77.38	7.58666
77.6	1.52414
77.82	1.06941
78.04	4.74362
78.26	4.62158
78.48	4.43109
78.7	3.26319
78.92	5.92514
79.14	7.95269
79.36	31.7502
79.58	18.7395
79.8	8.87154
80.02	4.07456
80.24	0.46259
80.46	0.631666
80.68	5.84128
80.9	2.91066
81.12	8.32365
81.34	1.86796
81.56	10.8955
81.78	5.96877
82	1.05605
82.22	8.04426
82.44	3.15889
82.66	4.76863
82.88	5.61468
83.1	3.45012
83.32	11.2539
83.54	2.00578
83.76	0.670609
83.98	8.47894
84.2	18.2072
84.42	6.16509
84.64	2.19733
84.86	0.258651
85.08	14.4224
85.3	8.62538
85.52	3.89285
85.74	1.34652
85.96	10.4793
86.18	4.49587
86.4	4.58256
86.62	6.74338
86.84	12.7913
87.06	3.46307
87.28	20.3552
87.5	12.2744
87.72	0.34876
87.94	0.260343
88.16	3.07523
88.38	7.14895
88.6	2.39346
88.82	2.69275
89.04	6.80384
89.26	4.25322
89.48	9.5226
89.7	7.08938
89.92	0.247277
