Measurement: Powder, Xray Data XY Processed
Mineral: Calcite
Rruff sample: R050127
Ideal chemistry: CaCO_3_
Locality: Rodeo, Durango, Mexico
Source: Dave Bunk Minerals
Description: Group of colorless crystals
Diffraction sample description: Powder
Measured chemistry: Ca_1.00_CO_3_
Cell parameters: a: 4.98840(7) b: 4.98840(7) c: 17.0568(3) alpha: 90. beta: 90. gamma: 120. volume: 367.58(1) crystal system: hexagonal
x	intensity
5	0
5.22	12.505
5.44	10.411
5.66	4.68
5.88	14.298
6.1	14.184
6.32	16.829
6.54	9.904
6.76	12.679
6.98	5.205
7.2	1.943
7.42	1.761
7.64	6.478
7.86	7.257
8.08	4.805
8.3	6.203
8.52	3.296
8.74	6.288
8.96	12.336
9.18	0.379
9.4	4.539
9.62	5.508
9.84	3.76
10.06	8.732
10.28	4.824
10.5	3.06
10.72	4.491
10.94	9.692
11.16	3.889
11.38	6.294
11.6	7.575
11.82	3.908
12.04	9.021
12.26	6.955
12.48	6.835
12.7	3.949
12.92	4.027
13.14	8.796
13.36	0.136
13.58	2.976
13.8	6.809
14.02	8.888
14.24	4.918
14.46	8.129
14.68	3.257
14.9	10.37
15.12	6.762
15.34	7.746
15.56	3.945
15.78	0.978
16	1.939
16.22	6.002
16.44	2.924
16.66	1.967
16.88	7.937
17.1	5.928
17.32	6.113
17.54	4.926
17.76	1.927
17.98	3.139
18.2	1.256
18.42	1.567
18.64	5.554
18.86	0.325
19.08	0.562
19.3	3.65
19.52	2.884
19.74	8.859
19.96	7.859
20.18	5.724
20.4	4.887
20.62	5.945
20.84	5.963
21.06	4.015
21.28	7.948
21.5	4.011
21.72	4.917
21.94	6.63
22.16	0.524
22.38	5.658
22.6	3.555
22.82	1.443
23.04	54.299
23.26	15.14
23.48	6.204
23.7	9.241
23.92	2.232
24.14	3.329
24.36	3.341
24.58	8.519
24.8	6.386
25.02	2.363
25.24	5.321
25.46	1.305
25.68	3.297
25.9	6.042
26.12	9.32
26.34	4.15
26.56	31.274
26.78	5.259
27	3.147
27.22	1.008
27.44	0.322
27.66	2.241
27.88	2.74
28.1	1.181
28.32	4.396
28.54	4.67
28.76	13.118
28.98	11.379
29.2	36.977
29.42	1285.82
29.64	94.769
29.86	26.673
30.08	8.93
30.3	6.181
30.52	9.522
30.74	6.134
30.96	5.736
31.18	2.341
31.4	10.871
31.62	8.324
31.84	1.545
32.06	1.131
32.28	11.161
32.5	0.634
32.72	1.913
32.94	2.129
33.16	5.087
33.38	0.026
33.6	0.057
33.82	3.89
34.04	3.887
34.26	4.609
34.48	4.398
34.7	8.282
34.92	2.953
35.14	1.858
35.36	0.043
35.58	3.088
35.8	4.267
36.02	161.394
36.24	7.594
36.46	1.749
36.68	1.998
36.9	5.536
37.12	4.615
37.34	2.751
37.56	1.75
37.78	3.523
38	1.176
38.22	2.887
38.44	0.424
38.66	4.302
38.88	6.88
39.1	1.516
39.32	21.402
39.54	132.329
39.76	14.38
39.98	7.584
40.2	0.874
40.42	3.195
40.64	1.521
40.86	2.84
41.08	8.06
41.3	4.4
41.52	5.46
41.74	8.062
41.96	2.846
42.18	1.692
42.4	7.362
42.62	1.941
42.84	8.695
43.06	18.418
43.28	76.329
43.5	14.284
43.72	6.969
43.94	8.2
44.16	3.307
44.38	3.58
44.6	2.757
44.82	0.216
45.04	1.452
45.26	4.663
45.48	0.826
45.7	2.455
45.92	3.91
46.14	5.141
46.36	2.475
46.58	0.693
46.8	3.72
47.02	10.9
47.24	47.86
47.46	72.053
47.68	139.122
47.9	10.809
48.12	7.879
48.34	20.364
48.56	142.04
48.78	26.604
49	17.383
49.22	4.357
49.44	7.49
49.66	3.352
49.88	8.172
50.1	0.963
50.32	10.584
50.54	3.89
50.76	2.915
50.98	3.007
51.2	4.284
51.42	0.403
51.64	1.489
51.86	5.319
52.08	4.351
52.3	4.446
52.52	3.442
52.74	2.408
52.96	2.698
53.18	4.742
53.4	0.806
53.62	2.843
53.84	0.21
54.06	7.793
54.28	0.744
54.5	5.039
54.72	7.09
54.94	9.237
55.16	1.165
55.38	6.753
55.6	3.547
55.82	5.219
56.04	3.102
56.26	0.512
56.48	9.189
56.7	16.954
56.92	2.313
57.14	10.108
57.36	14.038
57.58	24.181
57.8	5.471
58.02	11.692
58.24	1.293
58.46	1.304
58.68	2.036
58.9	4.306
59.12	2.506
59.34	3.654
59.56	5.616
59.78	6.302
60	1.977
60.22	5.647
60.44	4.32
60.66	30.788
60.88	44.887
61.1	13.826
61.32	6.727
61.54	15.872
61.76	3.956
61.98	1.12
62.2	2.27
62.42	3.53
62.64	6.857
62.86	3.28
63.08	11.588
63.3	10.497
63.52	6.42
63.74	2.356
63.96	1.77
64.18	3.105
64.4	5.009
64.62	14.933
64.84	18.777
65.06	7.806
65.28	7.635
65.5	3.405
65.72	19.724
65.94	0.956
66.16	1.118
66.38	0.341
66.6	1.608
66.82	2.767
67.04	4.968
67.26	5.063
67.48	2.07
67.7	1.029
67.92	2.185
68.14	0.922
68.36	6.799
68.58	2.811
68.8	0.652
69.02	3.697
69.24	5.675
69.46	12.735
69.68	1.995
69.9	2.833
70.12	5.897
70.34	10.965
70.56	6.162
70.78	4.28
71	4.342
71.22	0.54
71.44	0.715
71.66	1.257
71.88	3.455
72.1	5.382
72.32	2.358
72.54	7.208
72.76	8.205
72.98	14.057
73.2	7.981
73.42	8.001
73.64	11.903
73.86	2.297
74.08	3.892
74.3	11.091
74.52	6.116
74.74	5.19
74.96	0.277
75.18	4.148
75.4	2.125
75.62	3.114
75.84	6.044
76.06	3.967
76.28	3.833
76.5	12.808
76.72	5.853
76.94	3.1
77.16	13.075
77.38	8.122
77.6	0.803
77.82	0.307
78.04	0.457
78.26	1.504
78.48	4.613
78.7	6.694
78.92	3.789
79.14	1.548
79.36	0.525
79.58	4.651
79.8	1.77
80.02	5.702
80.24	0.592
80.46	3.357
80.68	4.254
80.9	6.281
81.12	2.167
81.34	6.97
81.56	16.908
81.78	13.789
82	3.785
82.22	2.663
82.44	1.598
82.66	0.538
82.88	2.475
83.1	0.407
83.32	0.234
83.54	5.284
83.76	17.226
83.98	11.137
84.2	6.939
84.42	3.973
84.64	4.96
84.86	10.035
85.08	15.254
85.3	4.523
85.52	2.781
85.74	1.951
85.96	1.01
86.18	6.247
86.4	2.459
86.62	2.602
86.84	2.514
87.06	1.684
87.28	4.852
87.5	1.842
87.72	7.809
87.94	2.796
88.16	2.884
88.38	0.937
88.6	5.866
88.82	2.897
89.04	4.015
89.26	0.957
89.48	2.993
89.7	3.806
89.92	8.268
