Measurement: Powder, Xray Data XY Processed
Mineral: Cerussite
Rruff sample: R050174
Ideal chemistry: Pb^2+^CO_3_
Locality: Tsumeb mine, Tsumeb, Otavi District, Oshikoto, Namibia
Source: Marcus Origlieri
Description: Colorless single crystal
Diffraction sample description: Powder
Measured chemistry: Pb_1.00_CO_3_ ; C not measured but estimated by difference and stoichiometry
Cell parameters: a: 5.1830(2) b: 8.4957(2) c: 6.1440(2) alpha: 90. beta: 90. gamma: 90. volume: 270.54(1) crystal system: orthorhombic
x	intensity
5	0
5.22	5.208
5.44	2.013
5.66	12.581
5.88	9.364
6.1	5.34
6.32	10.05
6.54	7.798
6.76	3.305
6.98	7.883
7.2	2.407
7.42	0.16
7.64	9.971
7.86	4.224
8.08	8.6
8.3	2.76
8.52	4.951
8.74	0.729
8.96	9.533
9.18	8.68
9.4	4.884
9.62	3.303
9.84	8.52
10.06	5.655
10.28	7.043
10.5	5.989
10.72	2.267
10.94	2.242
11.16	5.305
11.38	7.409
11.6	1.454
11.82	0.501
12.04	3.527
12.26	5.658
12.48	8.623
12.7	8.669
12.92	2.731
13.14	0.353
13.36	5.765
13.58	3.777
13.8	8.82
14.02	4.932
14.24	1.832
14.46	1.016
14.68	5.056
14.9	0
15.12	6.783
15.34	1.758
15.56	7.737
15.78	2.738
16	9.857
16.22	3.826
16.44	6.755
16.66	4.75
16.88	4.683
17.1	2.426
17.32	1.597
17.54	2.697
17.76	4.744
17.98	0.747
18.2	8.703
18.42	1.707
18.64	1.595
18.86	1.492
19.08	1.409
19.3	1.224
19.52	6.13
19.74	0.974
19.96	4.929
20.18	35.879
20.4	3.009
20.62	4.071
20.84	1.951
21.06	9.228
21.28	0.346
21.5	2.473
21.72	2.573
21.94	5.703
22.16	5.895
22.38	3.973
22.6	6.142
22.82	3.909
23.04	3.769
23.26	1.528
23.48	3.095
23.7	2.786
23.92	1.444
24.14	2.129
24.36	0.151
24.58	3.499
24.8	131.227
25.02	32.126
25.24	13.087
25.46	23.386
25.68	12.523
25.9	1.713
26.12	0.04
26.34	0.563
26.56	1.891
26.78	3.142
27	6.372
27.22	1.566
27.44	1.453
27.66	4.45
27.88	4.194
28.1	1.159
28.32	4.176
28.54	1.12
28.76	3.008
28.98	3.927
29.2	34.887
29.42	2.907
29.64	2.943
29.86	7.028
30.08	6.115
30.3	5.488
30.52	3.68
30.74	5.802
30.96	11.988
31.18	3.882
31.4	6.01
31.62	5.138
31.84	10.12
32.06	5.175
32.28	4.176
32.5	8.12
32.72	1.836
32.94	0.27
33.16	2.768
33.38	6.548
33.6	6.29
33.82	6.881
34.04	3.593
34.26	1.398
34.48	0.94
34.7	26.616
34.92	8.369
35.14	2.101
35.36	0.804
35.58	33.537
35.8	14.673
36.02	19.785
36.24	77.194
36.46	8.502
36.68	5.721
36.9	6.031
37.12	1.354
37.34	0.208
37.56	4.107
37.78	0.548
38	0.644
38.22	2.871
38.44	0.083
38.66	6.92
38.88	4.932
39.1	5.896
39.32	5.038
39.54	0.956
39.76	2.881
39.98	1.849
40.2	1.647
40.42	4.798
40.64	5.619
40.86	19.441
41.08	0.556
41.3	7.378
41.52	3.28
41.74	1.066
41.96	0.885
42.18	0.769
42.4	8.568
42.62	0.535
42.84	3.143
43.06	2.164
43.28	8.455
43.5	99.478
43.72	7.58
43.94	5.52
44.16	1.458
44.38	4.442
44.6	6.367
44.82	2.269
45.04	3.146
45.26	26.223
45.48	3.294
45.7	11.823
45.92	21.646
46.14	4.438
46.36	1.482
46.58	0.345
46.8	4.764
47.02	77.273
47.24	30.473
47.46	11.923
47.68	4.705
47.9	2.668
48.12	11.607
48.34	7.625
48.56	2.401
48.78	6.587
49	48.459
49.22	20.586
49.44	51.289
49.66	7.069
49.88	1.9
50.1	1.085
50.32	1.18
50.54	5.309
50.76	4.492
50.98	14.678
51.2	4.709
51.42	1.843
51.64	4.758
51.86	3.813
52.08	2.173
52.3	2.37
52.52	12.35
52.74	2.529
52.96	1.516
53.18	0.582
53.4	4.484
53.62	5.492
53.84	1.403
54.06	6.669
54.28	5.578
54.5	3.579
54.72	0.547
54.94	4.407
55.16	5.179
55.38	3.083
55.6	4.025
55.82	4.905
56.04	10.771
56.26	4.542
56.48	10.89
56.7	6.851
56.92	6.429
57.14	3.184
57.36	6.172
57.58	3.179
57.8	5.103
58.02	6.009
58.24	15.998
58.46	4.056
58.68	6.077
58.9	2.966
59.12	10.992
59.34	19.108
59.56	0.715
59.78	1.456
60	7.763
60.22	3.921
60.44	5.998
60.66	1.951
60.88	3.936
61.1	7.662
61.32	3.471
61.54	0.333
61.76	26.192
61.98	10.999
62.2	4.627
62.42	5.351
62.64	14.6
62.86	7.889
63.08	42.861
63.3	9.791
63.52	3.81
63.74	4.769
63.96	2.877
64.18	12.86
64.4	19.933
64.62	3.953
64.84	2.911
65.06	1.333
65.28	4.498
65.5	7.656
65.72	9.913
65.94	8.106
66.16	13.358
66.38	1.549
66.6	5.729
66.82	2.927
67.04	4.063
67.26	0.771
67.48	6.168
67.7	0.259
67.92	3.236
68.14	4.177
68.36	6.184
68.58	0.09
68.8	3.08
69.02	2.083
69.24	5.116
69.46	2.04
69.68	4.823
69.9	1.615
70.12	2.327
70.34	3.054
70.56	0.684
70.78	6.454
71	5.093
71.22	3.677
71.44	8.427
71.66	0.089
71.88	5.977
72.1	3.031
72.32	46.421
72.54	22.422
72.76	7.48
72.98	9.484
73.2	3.61
73.42	8.824
73.64	13.949
73.86	8.067
74.08	12.11
74.3	4.02
74.52	4.091
74.74	3.172
74.96	12.79
75.18	8.947
75.4	7.15
75.62	0.159
75.84	3.232
76.06	4.573
76.28	2.773
76.5	13.056
76.72	38.121
76.94	12.164
77.16	5.135
77.38	7.684
77.6	7.705
77.82	5.671
78.04	6.693
78.26	1.906
78.48	5.669
78.7	8.037
78.92	4.879
79.14	0.722
79.36	1.619
79.58	5.335
79.8	2.198
80.02	8.009
80.24	3.824
80.46	10.675
80.68	8.319
80.9	9.274
81.12	13.953
81.34	6.895
81.56	4.323
81.78	7.316
82	0.362
82.22	6.366
82.44	1.423
82.66	3.511
82.88	4.464
83.1	0.339
83.32	10.308
83.54	7.458
83.76	0.469
83.98	18.353
84.2	8.629
84.42	2.747
84.64	2.844
84.86	1.004
85.08	9.024
85.3	6.086
85.52	8.1
85.74	3.087
85.96	3.006
86.18	6.793
86.4	4.73
86.62	4.61
86.84	9.664
87.06	6.885
87.28	2.041
87.5	5.103
87.72	0.217
87.94	4.354
88.16	2.539
88.38	6.503
88.6	3.631
88.82	2.714
89.04	5.714
89.26	4.553
89.48	6.697
89.7	4.699
89.92	5.204
