Measurement: Powder, Xray Data XY Processed
Mineral: Diopside
Rruff sample: R060861
Ideal chemistry: CaMgSi_2_O_6_
Locality: Red Mountain Volcano, NW of Flagstaff, Arizona, USA
Source: Jennifer Sano
Description: Worn brown fragment
Diffraction sample description: Powder
Measured chemistry: (Ca_0.72_Fe^2+^_0.23_Na_0.05_)_Σ=1_(Mg_0.80_Al_0.15_Ti_0.03_Fe^3+^_0.02_)_Σ=1_(Si_1.82_Al_0.18_)_Σ=2_O_6_
Cell parameters: a: 9.7197(3) b: 8.8655(3) c: 5.2747(3) alpha: 90 beta: 106.556(4) gamma: 90 volume: 435.68(2) crystal system: monoclinic
x	intensity
5	0
5.22	9.66167
5.44	3.98497
5.66	5.0207
5.88	5.52673
6.1	5.42298
6.32	4.46356
6.54	10.5344
6.76	9.41098
6.98	7.48729
7.2	6.78169
7.42	3.39267
7.64	5.47095
7.86	4.03123
8.08	1.50247
8.3	14.7989
8.52	11.053
8.74	9.35346
8.96	3.72157
9.18	6.65595
9.4	0.56762
9.62	6.57751
9.84	3.99819
10.06	7.45947
10.28	0.483562
10.5	6.82155
10.72	2.17221
10.94	5.44264
11.16	5.64705
11.38	9.72241
11.6	2.80048
11.82	10.0291
12.04	5.39967
12.26	6.95322
12.48	8.14421
12.7	8.07623
12.92	0.502055
13.14	5.63547
13.36	8.76403
13.58	1.04953
13.8	11.3182
14.02	12.377
14.24	6.35754
14.46	4.28628
14.68	0.491187
14.9	9.27837
15.12	3.23377
15.34	13.5258
15.56	2.35412
15.78	7.29405
16	3.9196
16.22	7.80939
16.44	5.23517
16.66	3.18534
16.88	4.2446
17.1	6.04881
17.32	5.31488
17.54	8.15406
17.76	5.80391
17.98	9.79912
18.2	9.85763
18.42	7.93331
18.64	3.10668
18.86	2.10368
19.08	5.12147
19.3	0.893992
19.52	0.188354
19.74	0.908162
19.96	2.04031
20.18	15.1452
20.4	6.43662
20.62	9.38594
20.84	7.73387
21.06	9.36364
21.28	1.06273
21.5	7.06783
21.72	8.40339
21.94	2.69008
22.16	6.25007
22.38	3.33357
22.6	4.46629
22.82	2.12756
23.04	7.15257
23.26	4.68464
23.48	14.794
23.7	6.82367
23.92	1.66697
24.14	17.2239
24.36	4.79742
24.58	15.7876
24.8	10.622
25.02	15.5809
25.24	5.38044
25.46	2.54904
25.68	6.42134
25.9	5.11033
26.12	5.94914
26.34	0.828829
26.56	9.77981
26.78	20.9786
27	12.1331
27.22	1.37929
27.44	6.7786
27.66	10.1215
27.88	63.8899
28.1	8.86704
28.32	7.14501
28.54	6.09193
28.76	4.8114
28.98	5.46407
29.2	7.17045
29.42	13.3184
29.64	5.63883
29.86	31.9362
30.08	24.3699
30.3	7.4026
30.52	47.6227
30.74	5.71964
30.96	59.842
31.18	0.748189
31.4	1.8313
31.62	4.6055
31.84	11.2443
32.06	7.78688
32.28	0.814389
32.5	1.61826
32.72	6.86604
32.94	0.950686
33.16	1.76823
33.38	10.6421
33.6	2.01537
33.82	5.75431
34.04	2.41406
34.26	0.189153
34.48	7.31458
34.7	1.96882
34.92	8.53624
35.14	41.1129
35.36	8.66668
35.58	38.9432
35.8	8.15716
36.02	96.6204
36.24	8.81648
36.46	7.15277
36.68	12.5565
36.9	4.96816
37.12	9.44914
37.34	9.64914
37.56	6.03918
37.78	4.10251
38	4.61226
38.22	1.77232
38.44	1.29259
38.66	2.12706
38.88	8.18029
39.1	7.03674
39.32	5.90877
39.54	20.7138
39.76	7.64901
39.98	9.3332
40.2	1.3759
40.42	0.846469
40.64	2.35184
40.86	9.65284
41.08	8.64136
41.3	4.35587
41.52	5.26645
41.74	8.36869
41.96	1.80865
42.18	9.24518
42.4	11.1459
42.62	28.5112
42.84	10.6233
43.06	20.1819
43.28	3.95073
43.5	6.05302
43.72	4.96985
43.94	12.1593
44.16	1.96775
44.38	11.9246
44.6	14.0359
44.82	33.0255
45.04	13.5077
45.26	2.60079
45.48	8.56064
45.7	6.3943
45.92	4.74267
46.14	12.2166
46.36	4.43981
46.58	9.6198
46.8	6.06094
47.02	3.01797
47.24	11.4561
47.46	3.2162
47.68	16.0179
47.9	12.9547
48.12	6.2743
48.34	7.26984
48.56	6.94406
48.78	1.00862
49	3.83174
49.22	12.6842
49.44	5.62593
49.66	11.4025
49.88	11.1903
50.1	8.11738
50.32	15.0897
50.54	12.6811
50.76	7.7679
50.98	9.90489
51.2	1.58879
51.42	4.49688
51.64	7.26783
51.86	10.1345
52.08	4.05269
52.3	0.969026
52.52	21.9224
52.74	22.822
52.96	12.7765
53.18	6.88027
53.4	3.78834
53.62	11.9252
53.84	10.0182
54.06	14.065
54.28	0.019647
54.5	13.061
54.72	6.06446
54.94	1.4006
55.16	11.4155
55.38	9.20279
55.6	0.067019
55.82	1.73464
56.04	1.65231
56.26	3.57605
56.48	16.5494
56.7	13.8331
56.92	22.9113
57.14	16.7042
57.36	2.38071
57.58	21.4906
57.8	5.61758
58.02	5.98742
58.24	13.9478
58.46	8.54566
58.68	8.29829
58.9	11.2352
59.12	0.712873
59.34	5.1681
59.56	10.9956
59.78	0.795671
60	11.0007
60.22	4.88941
60.44	10.4797
60.66	11.4869
60.88	2.79715
61.1	6.96424
61.32	17.3362
61.54	10.8171
61.76	6.08362
61.98	1.35186
62.2	4.53802
62.42	14.4583
62.64	16.9078
62.86	9.16095
63.08	11.3277
63.3	14.2286
63.52	6.04393
63.74	7.23378
63.96	7.97842
64.18	0.960192
64.4	5.10396
64.62	6.33469
64.84	2.02004
65.06	0.709924
65.28	1.49912
65.5	5.34475
65.72	8.22297
65.94	15.1202
66.16	6.19731
66.38	18.3602
66.6	0.252275
66.82	12.0674
67.04	9.78931
67.26	12.6337
67.48	2.31657
67.7	8.21558
67.92	5.32279
68.14	8.47436
68.36	10.5978
68.58	4.63898
68.8	5.81869
69.02	8.36653
69.24	1.56212
69.46	12.7504
69.68	13.8399
69.9	10.8035
70.12	9.90702
70.34	5.91293
70.56	3.81273
70.78	16.4391
71	14.3392
71.22	12.7694
71.44	8.68033
71.66	6.52569
71.88	17.4212
72.1	3.63785
72.32	6.74141
72.54	5.18082
72.76	3.66806
72.98	6.83562
73.2	5.81084
73.42	1.3402
73.64	10.2645
73.86	12.6572
74.08	14.5452
74.3	15.1623
74.52	15.1642
74.74	5.98186
74.96	13.1107
75.18	8.58173
75.4	0.656342
75.62	6.73828
75.84	3.89244
76.06	6.1257
76.28	7.78739
76.5	7.91523
76.72	0.900732
76.94	8.05689
77.16	4.13745
77.38	8.006
77.6	0.06933
77.82	0.875313
78.04	8.10586
78.26	16.9632
78.48	1.86642
78.7	11.0351
78.92	6.94425
79.14	11.8397
79.36	5.94547
79.58	3.32654
79.8	5.40144
80.02	5.09357
80.24	15.1847
80.46	1.65513
80.68	5.19259
80.9	5.98056
81.12	6.01819
81.34	0.077718
81.56	3.4085
81.78	1.28915
82	20.0168
82.22	12.0173
82.44	5.0124
82.66	0.765121
82.88	6.44956
83.1	5.96528
83.32	7.84859
83.54	9.42757
83.76	18.8299
83.98	0.456923
84.2	5.64369
84.42	6.61114
84.64	13.082
84.86	21.3308
85.08	8.37839
85.3	9.60453
85.52	5.68233
85.74	10.8425
85.96	1.21133
86.18	13.1826
86.4	7.54599
86.62	15.6473
86.84	11.6024
87.06	2.09563
87.28	9.84944
87.5	4.78996
87.72	9.67335
87.94	7.82185
88.16	5.51909
88.38	5.55508
88.6	7.77201
88.82	9.7288
89.04	7.68336
89.26	7.04659
89.48	20.1706
89.7	10.9683
89.92	3.78697
