Measurement: Powder, Xray Data XY Processed
Mineral: Diopside
Rruff sample: R060061
Ideal chemistry: CaMgSi_2_O_6_
Locality: Oka, near Montreal, Quebec, Canada
Source: University of Arizona Mineral Museum
Description: Pale green prismatic single crystal
Diffraction sample description: Powder
Measured chemistry: (Ca_0.99_Mn_0.01_)_Σ=1_(Mg_0.92_Fe^2+^_0.06_Mn_0.02_)_Σ=1_(Si_1.99_Al_0.01_)_Σ=2_O_6_
Cell parameters: a: 9.7636(6) b: 8.9353(4) c: 5.2593(3) alpha: 90 beta: 105.784(6) gamma: 90 volume: 441.52(3) crystal system: monoclinic
x	intensity
5	0
5.22	25.552
5.44	1.874
5.66	0.458
5.88	1.77
6.1	9.345
6.32	8.754
6.54	26.161
6.76	13.545
6.98	9.185
7.2	4.577
7.42	0.977
7.64	21.95
7.86	8.992
8.08	6.031
8.3	3.118
8.52	9.158
8.74	25.949
8.96	3.779
9.18	8.596
9.4	3.429
9.62	6.43
9.84	12.638
10.06	2.545
10.28	11.54
10.5	2.992
10.72	6.348
10.94	1.677
11.16	0.114
11.38	4.175
11.6	18.375
11.82	6.357
12.04	13.388
12.26	10.299
12.48	3.083
12.7	8.583
12.92	2.739
13.14	5.684
13.36	12.93
13.58	1.959
13.8	4.022
14.02	7.14
14.24	5.36
14.46	8.29
14.68	6.448
14.9	4.55
15.12	1.787
15.34	3.084
15.56	4.678
15.78	0.105
16	3.13
16.22	12.441
16.44	0.282
16.66	3.387
16.88	5.106
17.1	0.838
17.32	9.223
17.54	7.283
17.76	2.939
17.98	6.775
18.2	1.299
18.42	3.577
18.64	3.62
18.86	10.08
19.08	6.269
19.3	1.371
19.52	0.522
19.74	3.603
19.96	23.61
20.18	2.741
20.4	1.15
20.62	13.251
20.84	6.323
21.06	4.249
21.28	0.279
21.5	2.065
21.72	5.896
21.94	4.706
22.16	8.466
22.38	6.397
22.6	7.316
22.82	8.315
23.04	0.985
23.26	3.963
23.48	16.418
23.7	11.49
23.92	7.6
24.14	9.747
24.36	12.71
24.58	7.666
24.8	0.638
25.02	9.875
25.24	7.793
25.46	2.647
25.68	3.481
25.9	3.201
26.12	2.286
26.34	1
26.56	10.803
26.78	3.718
27	1.209
27.22	5.854
27.44	7.04
27.66	104.632
27.88	6.404
28.1	6.101
28.32	6.662
28.54	3.075
28.76	3.349
28.98	8.657
29.2	12.013
29.42	53.226
29.64	21.356
29.86	228.472
30.08	25.636
30.3	107.984
30.52	6.826
30.74	3.354
30.96	51.7
31.18	11.756
31.4	0.388
31.62	5.421
31.84	18.095
32.06	2.744
32.28	2.249
32.5	6.137
32.72	5.331
32.94	6.532
33.16	4.723
33.38	0.122
33.6	6.456
33.82	4.087
34.04	4.73
34.26	3.52
34.48	8.316
34.7	5.662
34.92	33.261
35.14	13.373
35.36	12.616
35.58	57.784
35.8	27.618
36.02	12.176
36.24	0.545
36.46	1.265
36.68	4.096
36.9	5.269
37.12	5.488
37.34	9.704
37.56	9.661
37.78	5.46
38	5.206
38.22	2.2
38.44	4.842
38.66	7.02
38.88	7.109
39.1	36.024
39.32	11.063
39.54	3.908
39.76	3.106
39.98	0.534
40.2	4.708
40.42	10.549
40.64	23.243
40.86	10.84
41.08	6.282
41.3	2.769
41.52	4.438
41.74	8.931
41.96	21.834
42.18	11.867
42.4	36.803
42.62	1.578
42.84	20.733
43.06	6.225
43.28	8.405
43.5	5.629
43.72	2.032
43.94	7.173
44.16	5.404
44.38	29.636
44.6	8.891
44.82	13.164
45.04	21.145
45.26	6.167
45.48	0.014
45.7	7.31
45.92	6.616
46.14	5.705
46.36	1.012
46.58	6.274
46.8	13.411
47.02	3.617
47.24	12.743
47.46	6.816
47.68	9.712
47.9	0.876
48.12	4.928
48.34	1.625
48.56	10.538
48.78	4.46
49	12.425
49.22	3.175
49.44	8.925
49.66	21.901
49.88	8.331
50.1	6.652
50.32	17.82
50.54	7.673
50.76	0.869
50.98	1.916
51.2	3.203
51.42	9.589
51.64	5.643
51.86	2.624
52.08	48.357
52.3	21.929
52.52	6.912
52.74	5.743
52.96	0.689
53.18	5.756
53.4	7.834
53.62	0.91
53.84	1.005
54.06	4.047
54.28	1.217
54.5	11.749
54.72	12.748
54.94	9.821
55.16	6.819
55.38	9.802
55.6	2.527
55.82	5.337
56.04	3.191
56.26	3.194
56.48	17.01
56.7	37.845
56.92	26.257
57.14	1.349
57.36	6.258
57.58	10.251
57.8	4.159
58.02	5.07
58.24	9.231
58.46	5.047
58.68	0.915
58.9	4.914
59.12	10.786
59.34	8.811
59.56	19.417
59.78	11.294
60	4.444
60.22	4.487
60.44	12.548
60.66	13.393
60.88	1.86
61.1	1.018
61.32	8.939
61.54	14.901
61.76	13.459
61.98	0.773
62.2	10.161
62.42	9.183
62.64	2.242
62.86	8.914
63.08	10.979
63.3	2.644
63.52	0.675
63.74	4.687
63.96	0.303
64.18	4.959
64.4	0.352
64.62	1.13
64.84	13.716
65.06	1.442
65.28	9.937
65.5	49.048
65.72	12.387
65.94	13.562
66.16	13.632
66.38	18.93
66.6	1.585
66.82	4.995
67.04	1.63
67.26	11.89
67.48	1.344
67.7	9.626
67.92	6.792
68.14	6.669
68.36	1.794
68.58	1.064
68.8	8.792
69.02	2.642
69.24	7.361
69.46	5.165
69.68	0.755
69.9	10.358
70.12	4.181
70.34	4.184
70.56	1.013
70.78	9.96
71	16.828
71.22	16.016
71.44	2.099
71.66	5.317
71.88	7.482
72.1	4.764
72.32	5.848
72.54	5.91
72.76	1.309
72.98	6.691
73.2	9.802
73.42	0.922
73.64	3.83
73.86	11.738
74.08	8.471
74.3	11.54
74.52	5.497
74.74	2.84
74.96	4.783
75.18	5.738
75.4	9.79
75.62	5.403
75.84	4.223
76.06	6.249
76.28	6.227
76.5	2.566
76.72	1.367
76.94	6.385
77.16	8.066
77.38	6.281
77.6	0.374
77.82	8.392
78.04	17.652
78.26	2.81
78.48	2.777
78.7	10.05
78.92	1.057
79.14	8.295
79.36	6.427
79.58	3.599
79.8	7.586
80.02	5.873
80.24	4.055
80.46	2.994
80.68	14.15
80.9	7.184
81.12	1.236
81.34	4.082
81.56	2.942
81.78	7.941
82	9.011
82.22	6.969
82.44	7.67
82.66	7.425
82.88	8.332
83.1	2.103
83.32	2.989
83.54	0.811
83.76	5.749
83.98	10.862
84.2	9.669
84.42	12.511
84.64	0.496
84.86	4.613
85.08	2.728
85.3	0.117
85.52	8.09
85.74	5.345
85.96	9.525
86.18	0.343
86.4	7.602
86.62	5.542
86.84	1.543
87.06	6.464
87.28	5.478
87.5	1.58
87.72	10.46
87.94	9.294
88.16	11.029
88.38	9.097
88.6	3.208
88.82	5.95
89.04	6.079
89.26	2.055
89.48	3.243
89.7	4.782
89.92	2.148
