Measurement: Powder, Xray Data XY Processed
Mineral: Dolomite
Rruff sample: R050370
Ideal chemistry: CaMg(CO_3_)_2_
Locality: Morro Velho mine, Nova Lima, Minas Gerais, Brazil
Source: Eugene Schlepp
Description: Colorless bladed crystals associated with pyrrhotite and albite
Diffraction sample description: Powder
Measured chemistry: (Ca_0.84_Fe_0.16_)_Σ=1_(Mg_0.98_Mn_0.02_)_Σ=1_(CO_3_)_2_ ; CO_2_ estimated by difference
Cell parameters: a: 4.8169(2) b: 4.8169(2) c: 16.0733(10) alpha: 90. beta: 90. gamma: 120. volume: 322.98(3) crystal system: hexagonal
x	intensity
5	0
5.22	9.41616
5.44	15.7971
5.66	4.41442
5.88	4.86286
6.1	6.87322
6.32	0.045372
6.54	3.89612
6.76	23.1485
6.98	12.9351
7.2	16.7613
7.42	20.5679
7.64	15.8657
7.86	13.2062
8.08	2.37699
8.3	12.9877
8.52	4.7778
8.74	3.84663
8.96	8.01691
9.18	3.64122
9.4	10.9159
9.62	16.2158
9.84	14.9633
10.06	5.20021
10.28	9.11138
10.5	11.2306
10.72	3.56679
10.94	17.9031
11.16	4.72605
11.38	3.01127
11.6	6.09702
11.82	12.1349
12.04	12.8382
12.26	16.8934
12.48	16.8962
12.7	2.8783
12.92	23.1753
13.14	4.23178
13.36	10.9584
13.58	4.23435
13.8	0.015816
14.02	6.9388
14.24	7.94563
14.46	13.8713
14.68	14.9076
14.9	1.87096
15.12	16.8376
15.34	20.3619
15.56	24.0101
15.78	11.2535
16	12.1622
16.22	6.73993
16.44	5.82322
16.66	11.0752
16.88	16.1655
17.1	0.49177
17.32	0.507969
17.54	7.83997
17.76	1.93868
17.98	10.9182
18.2	15.8966
18.42	12.7783
18.64	9.7727
18.86	13.9143
19.08	1.65784
19.3	2.63541
19.52	13.2503
19.74	9.34516
19.96	13.4653
20.18	13.464
20.4	4.69968
20.62	5.57952
20.84	13.6768
21.06	0.409769
21.28	4.20227
21.5	2.7697
21.72	3.70384
21.94	1.77894
22.16	3.23891
22.38	2.70595
22.6	13.5499
22.82	17.1149
23.04	7.70277
23.26	3.5546
23.48	4.33517
23.7	9.76819
23.92	6.17503
24.14	50.4172
24.36	28.5142
24.58	15.938
24.8	1.1
25.02	22.5703
25.24	16.6827
25.46	6.76923
25.68	24.8554
25.9	0.965517
26.12	2.32102
26.34	8.62871
26.56	8.38244
26.78	5.95648
27	8.70795
27.22	9.78034
27.44	10.8317
27.66	22.3818
27.88	24.218
28.1	17.9856
28.32	3.13734
28.54	0.161304
28.76	10.3252
28.98	16.5711
29.2	4.74669
29.42	11.7216
29.64	1.62532
29.86	11.0868
30.08	15.5572
30.3	0.177593
30.52	10.0975
30.74	77.9229
30.96	804.397
31.18	59.6681
31.4	22.0409
31.62	3.11612
31.84	20.8237
32.06	3.69884
32.28	12.3732
32.5	4.42781
32.72	8.57664
32.94	9.88258
33.16	24.6175
33.38	31.0482
33.6	18.3249
33.82	3.34594
34.04	2.21932
34.26	5.17257
34.48	9.16484
34.7	13.1759
34.92	3.05506
35.14	14.1047
35.36	27.0652
35.58	13.1755
35.8	18.289
36.02	4.85375
36.24	11.618
36.46	7.45529
36.68	4.34716
36.9	11.283
37.12	9.29372
37.34	74.5438
37.56	33.6834
37.78	12.9593
38	16.4372
38.22	2.68222
38.44	12.9272
38.66	9.5239
38.88	5.26811
39.1	10.8276
39.32	16.9598
39.54	9.63674
39.76	12.1843
39.98	8.22222
40.2	15.3431
40.42	14.3579
40.64	14.7925
40.86	0.877739
41.08	126.049
41.3	49.18
41.52	14.8821
41.74	20.3059
41.96	5.24402
42.18	22.8142
42.4	11.8062
42.62	7.9455
42.84	13.8604
43.06	2.43588
43.28	15.1219
43.5	4.76914
43.72	14.2354
43.94	14.1203
44.16	8.52885
44.38	24.1946
44.6	5.75547
44.82	35.4691
45.04	64.6474
45.26	29.8649
45.48	15.6606
45.7	14.1619
45.92	30.9698
46.14	0.366253
46.36	11.2087
46.58	4.81605
46.8	18.1268
47.02	12.8101
47.24	12.3228
47.46	0.676708
47.68	19.1459
47.9	9.52287
48.12	11.7449
48.34	13.5157
48.56	17.6616
48.78	8.55949
49	5.31188
49.22	20.9836
49.44	11.0931
49.66	0.995438
49.88	1.78431
50.1	21.6399
50.32	55.4192
50.54	76.4412
50.76	28.1998
50.98	89.2215
51.2	66.6492
51.42	5.8957
51.64	14.7154
51.86	2.76003
52.08	15.4473
52.3	6.6844
52.52	10.6207
52.74	4.7832
52.96	12.3596
53.18	5.32906
53.4	7.53852
53.62	23.299
53.84	15.7234
54.06	15.4897
54.28	3.10527
54.5	3.85566
54.72	8.86486
54.94	7.80277
55.16	3.41112
55.38	4.98563
55.6	18.1514
55.82	18.0369
56.04	31.5636
56.26	6.68435
56.48	18.9185
56.7	12.5631
56.92	1.3331
57.14	7.03002
57.36	6.66722
57.58	22.012
57.8	15.1456
58.02	16.4931
58.24	4.1563
58.46	6.25395
58.68	12.3287
58.9	3.89486
59.12	12.1319
59.34	19.3505
59.56	11.1431
59.78	33.0363
60	10.9927
60.22	12.5217
60.44	8.0265
60.66	26.8473
60.88	4.33897
61.1	1.50076
61.32	19.806
61.54	5.56217
61.76	8.3518
61.98	18.0634
62.2	12.1062
62.42	2.15161
62.64	17.5263
62.86	26.2714
63.08	18.5643
63.3	34.0046
63.52	18.7968
63.74	24.2261
63.96	13.0663
64.18	0.596867
64.4	34.009
64.62	12.4921
64.84	16.8299
65.06	9.26413
65.28	8.22537
65.5	9.24241
65.72	13.7865
65.94	12.4637
66.16	17.7029
66.38	17.9221
66.6	9.45226
66.82	5.46466
67.04	13.3853
67.26	27.8509
67.48	26.9242
67.7	21.5489
67.92	9.88139
68.14	14.1154
68.36	10.3478
68.58	3.4855
68.8	13.1346
69.02	6.48903
69.24	4.38474
69.46	11.4097
69.68	17.8636
69.9	13.0123
70.12	8.87697
70.34	17.8315
70.56	25.7419
70.78	12.273
71	12.6688
71.22	26.6757
71.44	3.56273
71.66	1.37682
71.88	22.7352
72.1	3.12823
72.32	8.10772
72.54	0.255013
72.76	23.2917
72.98	16.6947
73.2	13.5472
73.42	2.10133
73.64	13.8978
73.86	7.91672
74.08	14.951
74.3	27.0109
74.52	14.5918
74.74	20.5488
74.96	12.1506
75.18	19.957
75.4	17.1219
75.62	5.31952
75.84	10.2154
76.06	7.05279
76.28	8.00209
76.5	10.3743
76.72	17.515
76.94	17.5808
77.16	5.85181
77.38	3.60256
77.6	8.83036
77.82	19.8976
78.04	7.13494
78.26	3.11757
78.48	3.0221
78.7	1.96558
78.92	9.65032
79.14	11.3921
79.36	0.534756
79.58	18.613
79.8	22.0739
80.02	12.3396
80.24	10.4403
80.46	14.0907
80.68	13.1651
80.9	0.798508
81.12	17.18
81.34	17.0314
81.56	7.911
81.78	8.84413
82	5.80275
82.22	13.4783
82.44	16.1624
82.66	10.8548
82.88	7.04812
83.1	20.1689
83.32	6.61072
83.54	17.8267
83.76	7.20704
83.98	4.43484
84.2	23.0965
84.42	10.0059
84.64	5.03901
84.86	10.1474
85.08	8.70243
85.3	0.94561
85.52	1.43647
85.74	11.7971
85.96	10.5594
86.18	18.0034
86.4	11.4162
86.62	6.36411
86.84	4.79436
87.06	16.0523
87.28	4.94019
87.5	17.2607
87.72	13.0441
87.94	10.3074
88.16	11.6852
88.38	5.9973
88.6	2.76932
88.82	16.3892
89.04	11.3683
89.26	5.20202
89.48	18.3626
89.7	12.6159
89.92	23.5743
