Measurement: Powder, Xray Data XY Processed
Mineral: Dolomite
Rruff sample: R050241
Ideal chemistry: CaMg(CO_3_)_2_
Locality: Eugui quarries, Navarre, Spain
Source: Marcus Origlieri
Description: Light gray colored tabular crystals
Diffraction sample description: Powder
Measured chemistry: (Ca_0.96_Mg_0.04_)_Σ=1_(Mg_0.98_Fe^2+^_0.02_)_Σ=1_(CO_3_)_2_ ; CO_2_ estimated by difference
Cell parameters: a: 4.8070(2) b: 4.8070(2) c: 16.0031(7) alpha: 90 beta: 90 gamma: 120 volume: 320.24(2) crystal system: hexagonal
x	intensity
5	0
5.22	14.0131
5.44	8.56416
5.66	13.6972
5.88	0.205175
6.1	14.0918
6.32	15.4651
6.54	13.4171
6.76	20.8683
6.98	17.6143
7.2	23.0966
7.42	7.91322
7.64	2.80773
7.86	0.519295
8.08	2.15588
8.3	3.85966
8.52	5.26593
8.74	6.59492
8.96	4.45466
9.18	7.63535
9.4	4.58111
9.62	10.4164
9.84	9.3855
10.06	1.30976
10.28	8.52395
10.5	1.49075
10.72	9.5104
10.94	9.81487
11.16	6.87906
11.38	2.13694
11.6	10.307
11.82	3.86574
12.04	6.96561
12.26	5.01337
12.48	5.9737
12.7	6.76129
12.92	3.26373
13.14	9.79332
13.36	1.72486
13.58	6.80081
13.8	1.89082
14.02	8.07266
14.24	3.02883
14.46	2.33071
14.68	13.7288
14.9	2.92437
15.12	10.1304
15.34	3.32749
15.56	10.4654
15.78	6.67123
16	8.84627
16.22	4.86391
16.44	6.9339
16.66	8.84854
16.88	1.1784
17.1	6.59845
17.32	5.64365
17.54	1.91595
17.76	0.900215
17.98	3.84263
18.2	0.689892
18.42	9.73446
18.64	9.6734
18.86	2.54927
19.08	7.38877
19.3	1.14344
19.52	5.21759
19.74	3.04826
19.96	7.6217
20.18	8.55157
20.4	6.52394
20.62	3.52381
20.84	7.44884
21.06	0.511462
21.28	10.5375
21.5	0.282558
21.72	5.73536
21.94	0.082952
22.16	10.9637
22.38	1.12781
22.6	3.20242
22.82	7.30046
23.04	1.16691
23.26	3.33408
23.48	0.189964
23.7	1.18208
23.92	7.09172
24.14	24.1913
24.36	9.26922
24.58	2.36904
24.8	4.28385
25.02	0.495927
25.24	5.60077
25.46	3.8943
25.68	20.8172
25.9	6.08779
26.12	2.35644
26.34	3.38188
26.56	5.54615
26.78	5.23427
27	1.16142
27.22	5.15095
27.44	3.08717
27.66	2.01022
27.88	13.9842
28.1	10.0251
28.32	6.28602
28.54	4.09085
28.76	7.64255
28.98	5.88321
29.2	0.236449
29.42	1.4641
29.64	8.61265
29.86	2.64107
30.08	9.81198
30.3	18.756
30.52	10.1119
30.74	22.9399
30.96	1491.61
31.18	177.885
31.4	17.8657
31.62	6.15898
31.84	7.86099
32.06	3.45088
32.28	1.94924
32.5	1.42491
32.72	0.970026
32.94	9.34326
33.16	3.96633
33.38	7.8853
33.6	524.139
33.82	17.5093
34.04	2.29776
34.26	3.43186
34.48	5.58662
34.7	5.00137
34.92	5.39282
35.14	1.46236
35.36	62.7328
35.58	6.69605
35.8	8.07106
36.02	5.04319
36.24	1.17592
36.46	3.35863
36.68	7.63734
36.9	2.90912
37.12	6.87308
37.34	18.1665
37.56	18.3252
37.78	6.37073
38	0.761221
38.22	0.336542
38.44	3.66639
38.66	6.8075
38.88	2.8383
39.1	10.6517
39.32	1.2432
39.54	6.1025
39.76	6.74294
39.98	1.54711
40.2	4.28682
40.42	2.79261
40.64	3.81764
40.86	7.03753
41.08	29.8635
41.3	101.866
41.52	0.072299
41.74	8.02341
41.96	5.11753
42.18	1.43849
42.4	2.90168
42.62	6.09405
42.84	6.19027
43.06	3.22453
43.28	1.18071
43.5	3.32335
43.72	5.13306
43.94	17.9751
44.16	7.73461
44.38	5.56346
44.6	2.77718
44.82	16.8217
45.04	59.6346
45.26	3.63508
45.48	3.76538
45.7	7.88399
45.92	15.831
46.14	2.96354
46.36	0.188697
46.58	1.31752
46.8	4.64688
47.02	5.77718
47.24	5.80962
47.46	1.96487
47.68	3.85083
47.9	13.7729
48.12	6.186
48.34	8.78832
48.56	0.441366
48.78	1.17308
49	3.81329
49.22	11.2906
49.44	35.7086
49.66	5.20805
49.88	8.79234
50.1	1.46743
50.32	0.984437
50.54	49.9532
50.76	111.337
50.98	21.5722
51.2	141.134
51.42	43.4919
51.64	6.21392
51.86	1.82641
52.08	8.36848
52.3	1.08373
52.52	0.574395
52.74	1.01055
52.96	8.44297
53.18	3.59115
53.4	1.91118
53.62	3.78461
53.84	8.98745
54.06	0.032481
54.28	2.1126
54.5	3.27693
54.72	11.3842
54.94	5.468
55.16	3.55276
55.38	7.54404
55.6	3.63613
55.82	3.58292
56.04	4.74459
56.26	5.7633
56.48	0.719519
56.7	4.64092
56.92	5.51298
57.14	6.61493
57.36	9.4621
57.58	1.80029
57.8	3.94759
58.02	4.6459
58.24	8.49797
58.46	0.157152
58.68	0.114726
58.9	11.6684
59.12	19.6169
59.34	3.61135
59.56	2.65147
59.78	16.9238
60	19.3353
60.22	5.59406
60.44	6.87023
60.66	2.12657
60.88	1.63876
61.1	4.50487
61.32	7.5924
61.54	7.62812
61.76	0.78219
61.98	6.68351
62.2	8.49654
62.42	2.06244
62.64	0.241858
62.86	10.4472
63.08	1.38254
63.3	11.0509
63.52	46.8212
63.74	5.65881
63.96	5.44598
64.18	6.1247
64.4	6.76525
64.62	26.2818
64.84	7.26173
65.06	7.25632
65.28	29.1494
65.5	5.17079
65.72	3.59536
65.94	4.72034
66.16	12.9271
66.38	10.115
66.6	3.3367
66.82	2.57719
67.04	3.51157
67.26	9.89828
67.48	24.0824
67.7	9.26788
67.92	3.37031
68.14	1.299
68.36	4.58376
68.58	5.66706
68.8	6.72748
69.02	0.761287
69.24	3.62747
69.46	10.2167
69.68	7.0926
69.9	3.1181
70.12	12.0596
70.34	8.09555
70.56	62.2091
70.78	47.057
71	2.07838
71.22	2.32401
71.44	4.39005
71.66	2.6835
71.88	0.226847
72.1	3.86379
72.32	7.92335
72.54	0.092143
72.76	6.05378
72.98	15.1023
73.2	7.12449
73.42	0.059407
73.64	5.96289
73.86	3.78139
74.08	1.60988
74.3	3.69884
74.52	4.79464
74.74	4.80089
74.96	6.71907
75.18	0.502017
75.4	9.36633
75.62	5.21382
75.84	1.03711
76.06	4.94612
76.28	1.9317
76.5	3.83444
76.72	3.76443
76.94	5.57437
77.16	8.79923
77.38	2.89669
77.6	2.93348
77.82	7.22669
78.04	1.59922
78.26	0.244516
78.48	0.051771
78.7	0.019461
78.92	8.19977
79.14	0.344277
79.36	5.27625
79.58	5.23854
79.8	5.30334
80.02	2.37671
80.24	1.84309
80.46	8.82208
80.68	5.90416
80.9	7.12829
81.12	4.04662
81.34	0.904724
81.56	1.73929
81.78	2.71418
82	4.54116
82.22	8.4684
82.44	8.38794
82.66	22.5662
82.88	6.63061
83.1	3.59499
83.32	5.38742
83.54	0.5039
83.76	6.78559
83.98	2.89086
84.2	6.09856
84.42	4.50066
84.64	1.54418
84.86	5.60616
85.08	4.61073
85.3	2.57298
85.52	0.488101
85.74	4.37047
85.96	7.26034
86.18	1.07436
86.4	3.1456
86.62	0.950441
86.84	1.52187
87.06	7.4135
87.28	3.19645
87.5	4.13884
87.72	0.28453
87.94	6.31573
88.16	10.3234
88.38	4.31779
88.6	0.209359
88.82	2.15996
89.04	4.2841
89.26	3.53901
89.48	6.08652
89.7	0.999953
89.92	4.04739
