Measurement: Powder, Xray Data XY Processed
Mineral: Epidote
Rruff sample: R050064
Ideal chemistry: Ca_2_Fe^3+^Al_2_(Si_2_O_7_)(SiO_4_)O(OH)
Locality: East Xichang City, Meigu County, Sichuan Province, China
Source: Rock Currier
Description: Green prismatic crystals
Diffraction sample description: Powder
Measured chemistry: (Ca_1.99_Mn_0.01_)_Î£=2_Fe^3+^_1.00_Al_2.00_(Si_2.00_O_7_)(Si_1.00_O_4_)O(OH);
Cell parameters: a: 8.901(1) b: 5.6460(5) c: 10.167(2) alpha: 90. beta: 115.32(1) gamma: 90. volume: 461.88(6) crystal system: monoclinic
x	intensity
5	0
5.22	24.401
5.44	10.791
5.66	9.942
5.88	8.274
6.1	7.019
6.32	6.682
6.54	9.642
6.76	20.896
6.98	24.176
7.2	21.194
7.42	18.016
7.64	8.173
7.86	8.341
8.08	11.773
8.3	9.833
8.52	7.885
8.74	12.094
8.96	16.545
9.18	14.607
9.4	12.66
9.62	23.224
9.84	6.103
10.06	9.964
10.28	4.573
10.5	17.111
10.72	0.452
10.94	18.693
11.16	17.383
11.38	1.92
11.6	7.716
11.82	17.337
12.04	4.817
12.26	17.392
12.48	15.052
12.7	18.381
12.92	19.949
13.14	30.808
13.36	9.109
13.58	6.706
13.8	5.862
14.02	9.202
14.24	2.498
14.46	5.221
14.68	8.841
14.9	21.054
15.12	0.825
15.34	13.129
15.56	0.017
15.78	5.589
16	6.196
16.22	21.916
16.44	17.625
16.66	2.314
16.88	3.728
17.1	12.182
17.32	5.948
17.54	30.247
17.76	47.717
17.98	1.217
18.2	4.258
18.42	10.35
18.64	11.868
18.86	16.933
19.08	6.844
19.3	38.9
19.52	11.59
19.74	5.861
19.96	14.884
20.18	20.421
20.4	13.907
20.62	2.931
20.84	10.894
21.06	14.634
21.28	21.699
21.5	5.686
21.72	15.81
21.94	4.567
22.16	47.799
22.38	38.756
22.6	2.223
22.82	3.619
23.04	11.64
23.26	1.118
23.48	31.208
23.7	38.409
23.92	8.345
24.14	11.898
24.36	2.152
24.58	12.726
24.8	8.041
25.02	10.844
25.24	9.567
25.46	66.166
25.68	13.767
25.9	22.09
26.12	34.622
26.34	4.02
26.56	16.439
26.78	10.071
27	3.896
27.22	8.403
27.44	9.57
27.66	15.953
27.88	19.97
28.1	25.139
28.32	8.927
28.54	5.652
28.76	11.595
28.98	3.66
29.2	19.379
29.42	1.952
29.64	31.288
29.86	3.409
30.08	3.775
30.3	11.871
30.52	20.486
30.74	81.346
30.96	46.524
31.18	16.247
31.4	22.358
31.62	23.577
31.84	42.474
32.06	42.757
32.28	28.053
32.5	4.7
32.72	14.651
32.94	1.074
33.16	17.563
33.38	81.462
33.6	41.489
33.82	23.859
34.04	5.757
34.26	9.172
34.48	128.969
34.7	15.275
34.92	20.942
35.14	22.68
35.36	52.238
35.58	6.203
35.8	20.051
36.02	3.212
36.24	3.615
36.46	16.512
36.68	24.612
36.9	15.189
37.12	5.727
37.34	60.996
37.56	32.646
37.78	25.726
38	14.512
38.22	10
38.44	23.081
38.66	7.127
38.88	0.697
39.1	41.942
39.32	39.237
39.54	6.995
39.76	10.942
39.98	18.23
40.2	19.399
40.42	1.76
40.64	15.585
40.86	0.472
41.08	7.878
41.3	23.667
41.52	8.809
41.74	40.98
41.96	8.621
42.18	7.117
42.4	15.62
42.62	43.678
42.84	42.728
43.06	8.477
43.28	19.506
43.5	9.942
43.72	41.995
43.94	6.17
44.16	33.402
44.38	6.473
44.6	17.086
44.82	4.552
45.04	25.584
45.26	6.989
45.48	13.898
45.7	11.152
45.92	4.62
46.14	16.83
46.36	18.958
46.58	16.144
46.8	0.765
47.02	13.21
47.24	7.774
47.46	4.967
47.68	7.573
47.9	13.971
48.12	21.74
48.34	44.83
48.56	42.362
48.78	15.884
49	16.035
49.22	8.848
49.44	4.288
49.66	6.539
49.88	12.387
50.1	19.062
50.32	8.415
50.54	8.6
50.76	15.435
50.98	15.99
51.2	22.69
51.42	24.596
51.64	8.933
51.86	16.701
52.08	13.335
52.3	3.208
52.52	6.551
52.74	21.712
52.96	1.893
53.18	0.813
53.4	18.831
53.62	9.163
53.84	14.485
54.06	28.6
54.28	25.612
54.5	11.675
54.72	26.206
54.94	12.804
55.16	0.813
55.38	11.156
55.6	0.389
55.82	42.73
56.04	52.147
56.26	38.326
56.48	42.068
56.7	2.508
56.92	9.022
57.14	6.126
57.36	9.344
57.58	8.657
57.8	12.63
58.02	18.648
58.24	18.305
58.46	19.335
58.68	20.013
58.9	12.653
59.12	7.891
59.34	2.202
59.56	23.211
59.78	18.512
60	23.257
60.22	33.757
60.44	27.761
60.66	6.446
60.88	0.067
61.1	14.091
61.32	22.293
61.54	3.278
61.76	21.92
61.98	11.954
62.2	9.158
62.42	12.036
62.64	5.704
62.86	25.372
63.08	13.267
63.3	9.183
63.52	17.991
63.74	33.425
63.96	21.107
64.18	18.548
64.4	14.462
64.62	13.092
64.84	3.878
65.06	6.411
65.28	11.907
65.5	21.406
65.72	7.68
65.94	6.794
66.16	19.601
66.38	34.734
66.6	8.879
66.82	13.409
67.04	14.949
67.26	20.889
67.48	9.402
67.7	14.002
67.92	16.654
68.14	7.788
68.36	18.391
68.58	5.74
68.8	7.095
69.02	1.584
69.24	14.159
69.46	7.258
69.68	21.196
69.9	19.677
70.12	12.119
70.34	9.925
70.56	8.835
70.78	19.824
71	27.153
71.22	6.138
71.44	13.966
71.66	19.398
71.88	19.171
72.1	18.606
72.32	19.067
72.54	16.64
72.76	20.738
72.98	8.18
73.2	3.403
73.42	12.887
73.64	19.595
73.86	19.121
74.08	21.112
74.3	7.871
74.52	7.43
74.74	7.321
74.96	21.27
75.18	25.187
75.4	2.847
75.62	17.957
75.84	12.98
76.06	13.289
76.28	6.738
76.5	9.316
76.72	3.2
76.94	14.349
77.16	31.565
77.38	21.493
77.6	12.731
77.82	1.24
78.04	13.445
78.26	7.798
78.48	5.68
78.7	8.794
78.92	7.366
79.14	15.748
79.36	13.935
79.58	8.833
79.8	16.959
80.02	20.869
80.24	1.341
80.46	7.456
80.68	10.611
80.9	15.774
81.12	5.205
81.34	7.8
81.56	8.309
81.78	13.523
82	10.714
82.22	18.744
82.44	20.718
82.66	8.533
82.88	5.34
83.1	27.45
83.32	33.604
83.54	19.202
83.76	25.239
83.98	21.067
84.2	13.313
84.42	6.202
84.64	11.66
84.86	17.755
85.08	14.818
85.3	7.803
85.52	9.771
85.74	8.524
85.96	0.195
86.18	9.123
86.4	14.895
86.62	1.802
86.84	12.704
87.06	21.477
87.28	6.212
87.5	15.773
87.72	28.041
87.94	9.364
88.16	0.472
88.38	4.431
88.6	10.425
88.82	12.966
89.04	29.293
89.26	17.308
89.48	14.838
89.7	11.162
89.92	13.54
