Measurement: Powder, Xray Data XY Processed
Mineral: Epidote
Rruff sample: R050131
Ideal chemistry: Ca_2_Fe^3+^Al_2_(Si_2_O_7_)(SiO_4_)O(OH)
Locality: Calumet mine, Chaffee County, Colorado, USA
Source: Dave Bunk Minerals
Description: Green prismatic crystal
Diffraction sample description: Powder
Measured chemistry: Ca_2.00_Al_2.00_(Fe^3+^_0.75_Al_0.25_)(SiO_4_)(Si_2_O_7_)O(OH)
Cell parameters: a: 8.8892(4) b: 5.6296(3) c: 10.1554(4) alpha: 90 beta: 115.410(2) gamma: 90 volume: 459.04(2) crystal system: monoclinic
x	intensity
5	0
5.22	6.464
5.44	3.613
5.66	14.652
5.88	18.571
6.1	16.368
6.32	9.801
6.54	31.711
6.76	7.203
6.98	3.574
7.2	9.462
7.42	2.086
7.64	3.225
7.86	23.365
8.08	17.708
8.3	5.767
8.52	4.355
8.74	12.341
8.96	19.659
9.18	12.697
9.4	14.59
9.62	22.987
9.84	7.862
10.06	4.956
10.28	12.94
10.5	21.373
10.72	7.523
10.94	16.665
11.16	9.702
11.38	4.733
11.6	0.632
11.82	17.71
12.04	0.499
12.26	21.64
12.48	16.631
12.7	15.392
12.92	3.879
13.14	13.442
13.36	10.58
13.58	10.504
13.8	13.731
14.02	8.206
14.24	22.191
14.46	6.331
14.68	11.506
14.9	11.078
15.12	11.618
15.34	11.038
15.56	6.064
15.78	5.589
16	2.347
16.22	14.687
16.44	9.115
16.66	8.026
16.88	1.238
17.1	0.901
17.32	7.227
17.54	18.065
17.76	10.528
17.98	20.475
18.2	13.499
18.42	21.692
18.64	17.656
18.86	16.517
19.08	26.448
19.3	37.304
19.52	11.544
19.74	7.443
19.96	16.504
20.18	15.625
20.4	10.655
20.62	8.882
20.84	17.543
21.06	1.521
21.28	0.506
21.5	29.599
21.72	13.192
21.94	26.69
22.16	103.692
22.38	27.43
22.6	6.629
22.82	11.6
23.04	7.557
23.26	10.087
23.48	1.186
23.7	28.242
23.92	15.686
24.14	13.431
24.36	11.277
24.58	17.134
24.8	8.913
25.02	13.323
25.24	10.073
25.46	19.198
25.68	15.402
25.9	1.972
26.12	22.038
26.34	12.12
26.56	3.808
26.78	8.392
27	5.674
27.22	19.471
27.44	5.095
27.66	1.901
27.88	75.977
28.1	15.199
28.32	12.64
28.54	4.962
28.76	11.944
28.98	0.896
29.2	32.841
29.42	8.128
29.64	9.533
29.86	2.164
30.08	1.453
30.3	3.142
30.52	24.202
30.74	52.869
30.96	37.329
31.18	1.152
31.4	5.7
31.62	2.917
31.84	127.257
32.06	27.545
32.28	14.606
32.5	18.644
32.72	11.477
32.94	12.174
33.16	7.2
33.38	72.047
33.6	16.922
33.82	32.607
34.04	5.658
34.26	0.865
34.48	149.005
34.7	16.316
34.92	5.154
35.14	30.537
35.36	27.515
35.58	41.73
35.8	25.709
36.02	8.039
36.24	5.805
36.46	12.698
36.68	15.963
36.9	8.941
37.12	15.108
37.34	33.703
37.56	41.402
37.78	17.27
38	21.224
38.22	8.635
38.44	6.275
38.66	17.804
38.88	14.006
39.1	56.222
39.32	54.161
39.54	14.47
39.76	14.27
39.98	11.495
40.2	14.92
40.42	15.807
40.64	3.503
40.86	19.527
41.08	12.996
41.3	13.58
41.52	5.042
41.74	42.825
41.96	16.286
42.18	9.204
42.4	6.589
42.62	17.024
42.84	34.738
43.06	8.881
43.28	12.231
43.5	10.166
43.72	10.271
43.94	11.889
44.16	19.159
44.38	8.366
44.6	22.554
44.82	8.001
45.04	4.51
45.26	8.992
45.48	9.248
45.7	14.229
45.92	9.444
46.14	1.552
46.36	15.755
46.58	28.552
46.8	2.652
47.02	18.5
47.24	26.552
47.46	13.368
47.68	0.624
47.9	0.29
48.12	11.778
48.34	34.282
48.56	69.806
48.78	26.376
49	21.965
49.22	11.385
49.44	15.353
49.66	12.059
49.88	10.06
50.1	20.635
50.32	6.744
50.54	13.36
50.76	10.962
50.98	8.984
51.2	6.818
51.42	9.174
51.64	10.865
51.86	1.185
52.08	4.062
52.3	9.185
52.52	25.095
52.74	18.355
52.96	14.063
53.18	18.737
53.4	10.554
53.62	13.879
53.84	22.113
54.06	20.295
54.28	5.886
54.5	6.502
54.72	1.215
54.94	8.468
55.16	3.943
55.38	11.963
55.6	0.538
55.82	11.217
56.04	28.659
56.26	68.42
56.48	52.07
56.7	66.398
56.92	20.857
57.14	25.228
57.36	10.444
57.58	4.584
57.8	14.031
58.02	8.76
58.24	4.679
58.46	42.533
58.68	26.052
58.9	13.662
59.12	4.996
59.34	0.953
59.56	16.484
59.78	29.354
60	19.862
60.22	24.732
60.44	8.121
60.66	4.065
60.88	5.898
61.1	2.308
61.32	8.941
61.54	19.981
61.76	3.48
61.98	2
62.2	0.031
62.42	10.227
62.64	24.832
62.86	0.121
63.08	4.097
63.3	6.104
63.52	8.526
63.74	6.718
63.96	19.934
64.18	5.196
64.4	19.62
64.62	11.334
64.84	42.127
65.06	7.123
65.28	7.948
65.5	4.304
65.72	5.181
65.94	12.746
66.16	7.517
66.38	23.179
66.6	32.582
66.82	19.676
67.04	20.302
67.26	34.483
67.48	3.978
67.7	1.255
67.92	12.505
68.14	22.067
68.36	1.981
68.58	3.769
68.8	17.708
69.02	6.655
69.24	15.338
69.46	15.91
69.68	7.26
69.9	24.379
70.12	12.202
70.34	7.207
70.56	15.575
70.78	14.436
71	6.178
71.22	2.531
71.44	7.496
71.66	7.828
71.88	5.371
72.1	10.159
72.32	11.751
72.54	0.422
72.76	12.362
72.98	19.923
73.2	4.522
73.42	6.878
73.64	9.513
73.86	2.356
74.08	11.5
74.3	13.851
74.52	10.919
74.74	23.995
74.96	9.264
75.18	12.476
75.4	15.794
75.62	24.671
75.84	15.476
76.06	14.716
76.28	20.403
76.5	3.121
76.72	0.912
76.94	6.174
77.16	21.451
77.38	14.137
77.6	25.91
77.82	4.754
78.04	3.462
78.26	10.531
78.48	12.118
78.7	7.855
78.92	15.562
79.14	0.89
79.36	17.76
79.58	16.415
79.8	2.77
80.02	0.8
80.24	3.07
80.46	18.152
80.68	12.585
80.9	10.49
81.12	17.685
81.34	19.51
81.56	12.981
81.78	5.742
82	7.183
82.22	5.085
82.44	13.317
82.66	17.419
82.88	6.048
83.1	0.835
83.32	11.664
83.54	17.42
83.76	13.092
83.98	7.469
84.2	8.569
84.42	13.895
84.64	14.026
84.86	20.072
85.08	15.237
85.3	4.423
85.52	8.148
85.74	6.239
85.96	15.592
86.18	3.114
86.4	8.171
86.62	13.111
86.84	17.876
87.06	5.064
87.28	7.9
87.5	7.749
87.72	17.744
87.94	5.887
88.16	8.169
88.38	15.173
88.6	16.369
88.82	16.077
89.04	13.403
89.26	18.389
89.48	9.168
89.7	8.418
89.92	6.27
