Measurement: Powder, Xray Data XY Processed
Mineral: Epidote
Rruff sample: R050202
Ideal chemistry: Ca_2_Fe^3+^Al_2_(Si_2_O_7_)(SiO_4_)O(OH)
Locality: Iron Cap mine, Landsman Camp, Graham County, Arizona, USA
Source: Bob Downs
Description: Green colored prismatic single crystal associated with quartz, diopside and tremolite
Diffraction sample description: Powder
Measured chemistry: Ca_2.00_Al_2.00_(Fe^3+^_0.68_Al_0.32_)(SiO_4_)(Si_2_O_7_)O(OH)
Cell parameters: a: 8.904(1) b: 5.629(1) c: 10.159(1) alpha: 90 beta: 115.448(9) gamma: 90 volume: 459.78(8) crystal system: monoclinic
x	intensity
5	0
5.22	5.64049
5.44	1.02816
5.66	11.5154
5.88	12.1619
6.1	4.91427
6.32	6.32661
6.54	8.69304
6.76	10.0966
6.98	19.8105
7.2	3.39648
7.42	19.8651
7.64	22.0035
7.86	1.3713
8.08	5.72966
8.3	1.03036
8.52	23.5162
8.74	28.5864
8.96	4.54995
9.18	14.9662
9.4	10.4698
9.62	13.3036
9.84	9.93547
10.06	18.8509
10.28	14.9474
10.5	11.8376
10.72	12.4696
10.94	17.4181
11.16	7.28942
11.38	3.43234
11.6	10.9047
11.82	15.1471
12.04	3.29117
12.26	6.6697
12.48	17.8492
12.7	3.19567
12.92	2.99129
13.14	9.68055
13.36	13.6838
13.58	3.81857
13.8	17.1618
14.02	22.173
14.24	11.0899
14.46	0.197639
14.68	17.2165
14.9	11.7454
15.12	5.44929
15.34	6.59879
15.56	12.7654
15.78	10.0004
16	15.2042
16.22	16.0612
16.44	9.95451
16.66	17.6498
16.88	7.52778
17.1	15.2277
17.32	5.30015
17.54	35.5603
17.76	32.8182
17.98	14.1615
18.2	16.8212
18.42	10.6664
18.64	15.8102
18.86	11.8197
19.08	14.0585
19.3	36.6826
19.52	20.9347
19.74	8.07968
19.96	0.397697
20.18	9.40721
20.4	6.90393
20.62	3.09712
20.84	17.2154
21.06	21.0575
21.28	8.07626
21.5	11.5059
21.72	8.24168
21.94	5.36092
22.16	95.5742
22.38	35.7724
22.6	9.0495
22.82	14.1444
23.04	0.441525
23.26	14.6909
23.48	14.174
23.7	26.219
23.92	22.6025
24.14	14.1037
24.36	7.57744
24.58	18.3348
24.8	15.9317
25.02	11.2715
25.24	5.53251
25.46	18.7122
25.68	19.8047
25.9	19.6601
26.12	30.3682
26.34	10.5503
26.56	14.7922
26.78	17.0017
27	0.11834
27.22	7.39232
27.44	7.26768
27.66	13.6887
27.88	36.1247
28.1	13.5846
28.32	10.2119
28.54	11.1204
28.76	22.5345
28.98	13.2167
29.2	35.05
29.42	7.49471
29.64	7.76014
29.86	4.85621
30.08	13.8424
30.3	1.74353
30.52	25.8914
30.74	29.8185
30.96	106.063
31.18	1.53238
31.4	0.92374
31.62	21.1797
31.84	68.7216
32.06	25.0243
32.28	3.75167
32.5	15.9016
32.72	22.5045
32.94	2.32853
33.16	15.826
33.38	51.2487
33.6	22.3482
33.82	30.1079
34.04	14.4817
34.26	12.0749
34.48	91.8011
34.7	20.9157
34.92	15.8149
35.14	5.01821
35.36	4.31355
35.58	34.7322
35.8	15.8274
36.02	10.6187
36.24	9.44382
36.46	8.81429
36.68	28.1848
36.9	14.278
37.12	30.0934
37.34	16.4578
37.56	52.4817
37.78	40.939
38	10.0083
38.22	9.43375
38.44	7.18182
38.66	5.18117
38.88	6.6294
39.1	23.8425
39.32	34.1475
39.54	21.6841
39.76	10.6367
39.98	8.59506
40.2	6.5321
40.42	6.26403
40.64	0.312233
40.86	2.26351
41.08	10.9043
41.3	20.898
41.52	22.4589
41.74	41.8325
41.96	13.411
42.18	7.04945
42.4	8.94545
42.62	15.7066
42.84	34.9712
43.06	22.1992
43.28	12.8534
43.5	5.30979
43.72	27.729
43.94	4.95352
44.16	4.40453
44.38	23.3624
44.6	21.2257
44.82	14.6823
45.04	19.4554
45.26	4.62627
45.48	17.9267
45.7	5.63882
45.92	6.79427
46.14	9.96092
46.36	12.1107
46.58	13.8407
46.8	9.60718
47.02	10.5345
47.24	17.3947
47.46	15.9739
47.68	22.6663
47.9	7.21952
48.12	4.81621
48.34	28.7673
48.56	49.0044
48.78	50.7601
49	14.9722
49.22	8.53369
49.44	8.41269
49.66	17.6071
49.88	23.0812
50.1	14.3745
50.32	5.48847
50.54	3.439
50.76	14.4632
50.98	6.19098
51.2	9.31669
51.42	0.598835
51.64	18.5361
51.86	2.66584
52.08	16.0797
52.3	6.30317
52.52	4.439
52.74	12.5362
52.96	19.7185
53.18	18.9938
53.4	4.76581
53.62	9.94296
53.84	21.011
54.06	3.47568
54.28	15.0674
54.5	4.87262
54.72	4.80005
54.94	17.3845
55.16	26.239
55.38	1.91421
55.6	9.34935
55.82	31.5543
56.04	39.8726
56.26	65.1578
56.48	46.6558
56.7	19.0804
56.92	21.0578
57.14	30.4796
57.36	15.5005
57.58	12.4865
57.8	20.4802
58.02	28.2682
58.24	6.78942
58.46	24.6253
58.68	26.3004
58.9	0.256069
59.12	25.0832
59.34	2.98639
59.56	19.1428
59.78	0.495831
60	27.7654
60.22	19.0085
60.44	5.68052
60.66	16.517
60.88	8.43222
61.1	10.6882
61.32	23.0755
61.54	12.6135
61.76	14.7
61.98	3.63174
62.2	7.8701
62.42	11.9109
62.64	19.0277
62.86	1.51717
63.08	7.0528
63.3	18.0284
63.52	6.81022
63.74	21.4638
63.96	18.018
64.18	3.80275
64.4	5.8868
64.62	9.33317
64.84	16.4492
65.06	13.1744
65.28	5.83765
65.5	8.21357
65.72	9.32485
65.94	6.08896
66.16	5.50948
66.38	39.2493
66.6	25.3928
66.82	17.3279
67.04	23.3198
67.26	10.069
67.48	2.66791
67.7	28.5338
67.92	22.5653
68.14	10.6424
68.36	23.328
68.58	8.88402
68.8	22.4358
69.02	8.79107
69.24	12.298
69.46	6.66338
69.68	5.06227
69.9	10.9331
70.12	5.07045
70.34	2.71866
70.56	1.71355
70.78	6.64133
71	14.0482
71.22	5.93808
71.44	11.1028
71.66	11.0344
71.88	12.3069
72.1	8.25603
72.32	13.0077
72.54	20.9335
72.76	12.2847
72.98	11.0525
73.2	2.76239
73.42	10.1076
73.64	6.22619
73.86	9.23615
74.08	7.96586
74.3	11.4536
74.52	22.9442
74.74	0.888233
74.96	11.7745
75.18	5.35171
75.4	7.54026
75.62	1.51148
75.84	11.7762
76.06	13.0297
76.28	16.7209
76.5	3.27466
76.72	13.4105
76.94	0.976768
77.16	11.6456
77.38	11.3925
77.6	20.6001
77.82	15.9794
78.04	9.06209
78.26	10.5498
78.48	6.95429
78.7	9.85084
78.92	1.82769
79.14	13.044
79.36	11.1329
79.58	0.351938
79.8	9.06984
80.02	8.18997
80.24	23.5229
80.46	21.0107
80.68	4.36472
80.9	3.37382
81.12	16.5447
81.34	8.4658
81.56	19.1542
81.78	7.06665
82	15.7391
82.22	7.20929
82.44	8.9596
82.66	5.5291
82.88	11.4649
83.1	15.6075
83.32	8.58692
83.54	12.3563
83.76	10.2927
83.98	12.3199
84.2	2.3153
84.42	5.99385
84.64	14.412
84.86	1.70229
85.08	9.72815
85.3	8.51098
85.52	21.5318
85.74	8.79203
85.96	2.36411
86.18	20.5187
86.4	12.4821
86.62	4.32762
86.84	22.2013
87.06	1.07581
87.28	35.6174
87.5	10.479
87.72	11.5232
87.94	12.9224
88.16	8.82188
88.38	15.0237
88.6	16.7524
88.82	13.3388
89.04	25.064
89.26	10.6198
89.48	9.89752
89.7	13.0531
89.92	4.98746
