Measurement: Powder, Xray Data XY Processed
Mineral: Fluorapatite
Rruff sample: R050122
Ideal chemistry: Ca_5_(PO_4_)_3_F
Locality: Cruziero mine, San Jose, Minas Gerais, Brazil
Source: Carlos and Paulo Vasconcelos
Description: Green fragment
Diffraction sample description: Powder
Measured chemistry: (Ca_4.99_Mn_0.01_)_Î£=5_(P_1.00_O_4_)_3_F_1.00_; trace amounts of Fe
Cell parameters: a: 9.3930(1) b: 9.3930(1) c: 6.8827(2) alpha: 90. beta: 90. gamma: 120. volume: 525.91(2) crystal system: hexagonal
x	intensity
5	0
5.22	2.962
5.44	4.045
5.66	10.745
5.88	4.356
6.1	7.111
6.32	7.122
6.54	1.04
6.76	10.143
6.98	8.233
7.2	8.394
7.42	13.164
7.64	10.822
7.86	4.531
8.08	3.05
8.3	3.792
8.52	4.318
8.74	1.082
8.96	4.228
9.18	5.645
9.4	6.786
9.62	11.718
9.84	6.351
10.06	0.09
10.28	4.773
10.5	2.574
10.72	3.559
10.94	68.657
11.16	5.551
11.38	6.657
11.6	4.75
11.82	0.951
12.04	1.526
12.26	7.87
12.48	3.196
12.7	1.451
12.92	6.687
13.14	8.87
13.36	6.877
13.58	8.116
13.8	0.344
14.02	9.45
14.24	1.562
14.46	1.174
14.68	1.436
14.9	5.525
15.12	0.582
15.34	0.402
15.56	2.621
15.78	0.737
16	4.942
16.22	0.793
16.44	0.067
16.66	5.146
16.88	25.471
17.1	3.415
17.32	3.505
17.54	2.639
17.76	4.658
17.98	6.662
18.2	5.682
18.42	6.481
18.64	4.379
18.86	6.226
19.08	3.182
19.3	2.051
19.52	5.021
19.74	8.182
19.96	1.361
20.18	6.482
20.4	6.624
20.62	4.739
20.84	2.682
21.06	1.277
21.28	8.779
21.5	1.209
21.72	6.624
21.94	32.57
22.16	2.333
22.38	4.235
22.6	2.353
22.82	2.629
23.04	19.546
23.26	1.688
23.48	0.84
23.7	2.021
23.92	2.003
24.14	1.959
24.36	4.011
24.58	2.968
24.8	3.883
25.02	5.567
25.24	2.251
25.46	20.529
25.68	8.469
25.9	165.388
26.12	6.257
26.34	1.249
26.56	6.341
26.78	5.559
27	3.513
27.22	4.479
27.44	1.46
27.66	1.406
27.88	0.039
28.1	9.861
28.32	12.03
28.54	1.052
28.76	5.112
28.98	5.161
29.2	18.021
29.42	0.589
29.64	3.519
29.86	6.556
30.08	4.446
30.3	3.333
30.52	4.011
30.74	3.292
30.96	1.72
31.18	8.098
31.4	0.48
31.62	11.823
31.84	112.067
32.06	46.749
32.28	255.372
32.5	4.358
32.72	1.848
32.94	22.989
33.16	107.255
33.38	3.601
33.6	2.206
33.82	0.73
34.04	17.254
34.26	46.782
34.48	4.2
34.7	0.562
34.92	1.429
35.14	3.545
35.36	3.836
35.58	28.159
35.8	7.433
36.02	1.367
36.24	2.499
36.46	1.718
36.68	0.243
36.9	1.891
37.12	2.994
37.34	3.044
37.56	2.061
37.78	3.209
38	3.448
38.22	3.335
38.44	3.293
38.66	2.056
38.88	2.838
39.1	2.792
39.32	30.787
39.54	6.703
39.76	8.713
39.98	114.897
40.2	1.736
40.42	3.651
40.64	10.624
40.86	5.63
41.08	1.626
41.3	4.602
41.52	1.604
41.74	6.542
41.96	2.842
42.18	18.641
42.4	8.561
42.62	0.605
42.84	3.465
43.06	4.541
43.28	1.712
43.5	1.262
43.72	5.796
43.94	27.922
44.16	0.065
44.38	1.634
44.6	0.426
44.82	1.648
45.04	1.654
45.26	2.685
45.48	9.587
45.7	1.36
45.92	0.73
46.14	2.174
46.36	7.433
46.58	4.378
46.8	51.323
47.02	20.19
47.24	2.788
47.46	6.508
47.68	9.209
47.9	2
48.12	13.224
48.34	48.024
48.56	1.771
48.78	10.097
49	6.962
49.22	3.32
49.44	11.28
49.66	44.264
49.88	11.296
50.1	6.016
50.32	5.098
50.54	4.739
50.76	20.989
50.98	0.125
51.2	8.257
51.42	11.382
51.64	30.027
51.86	2.404
52.08	4.573
52.3	23.627
52.52	1.36
52.74	5.647
52.96	0.191
53.18	19.467
53.4	19.723
53.62	5.073
53.84	5.446
54.06	4.626
54.28	0.599
54.5	1.985
54.72	2.098
54.94	4.042
55.16	2.005
55.38	0.82
55.6	1.782
55.82	4.769
56.04	31.64
56.26	5.428
56.48	1.41
56.7	7.5
56.92	1.464
57.14	2.576
57.36	4.626
57.58	3.698
57.8	1.781
58.02	0.692
58.24	10.883
58.46	3.017
58.68	6.169
58.9	1.252
59.12	4.009
59.34	0.877
59.56	4.736
59.78	0.692
60	2.688
60.22	6.638
60.44	8.564
60.66	65.247
60.88	7.164
61.1	2.297
61.32	2.19
61.54	3.281
61.76	30.351
61.98	15.295
62.2	3.151
62.42	3.925
62.64	0.724
62.86	1.567
63.08	3.398
63.3	14.24
63.52	2.835
63.74	3.777
63.96	6.754
64.18	11.623
64.4	5.709
64.62	8.941
64.84	1.265
65.06	1.675
65.28	32.963
65.5	15.231
65.72	1.513
65.94	2.808
66.16	1.864
66.38	2.017
66.6	19.363
66.82	10.533
67.04	3.551
67.26	0.444
67.48	4.38
67.7	0.514
67.92	0.67
68.14	2.73
68.36	2.683
68.58	3.693
68.8	2.688
69.02	1.601
69.24	3.756
69.46	2.917
69.68	2.959
69.9	14.131
70.12	15.08
70.34	3.912
70.56	4.944
70.78	0.839
71	4.707
71.22	1.585
71.44	3.424
71.66	3.057
71.88	29.867
72.1	22.642
72.32	0.818
72.54	17.653
72.76	7.642
72.98	3.478
73.2	0.459
73.42	6.524
73.64	2.511
73.86	0.581
74.08	8.623
74.3	9.671
74.52	5.528
74.74	0.828
74.96	1.179
75.18	4.181
75.4	0.901
75.62	16.007
75.84	12.158
76.06	3.978
76.28	8.96
76.5	7.838
76.72	0.773
76.94	6.154
77.16	31.207
77.38	20.079
77.6	3.169
77.82	5.358
78.04	5.519
78.26	7.577
78.48	53.715
78.7	25.053
78.92	7.41
79.14	3.529
79.36	2.378
79.58	2.616
79.8	4.707
80.02	4.893
80.24	7.856
80.46	3.892
80.68	0.283
80.9	4.619
81.12	4.446
81.34	10.393
81.56	1.273
81.78	0.249
82	9.118
82.22	6.105
82.44	5.873
82.66	2.77
82.88	2.617
83.1	1.564
83.32	2.478
83.54	2.405
83.76	8.171
83.98	4.233
84.2	4.2
84.42	11.244
84.64	4.267
84.86	1.423
85.08	4.598
85.3	2.881
85.52	7.066
85.74	12.33
85.96	3.525
86.18	2.614
86.4	6.466
86.62	1.341
86.84	1.178
87.06	5.052
87.28	2.858
87.5	23.655
87.72	7.376
87.94	6.117
88.16	6.101
88.38	8.04
88.6	2.033
88.82	52.166
89.04	6.318
89.26	2.395
89.48	0.002
89.7	0.18
89.92	8.47
