Measurement: Powder, Xray Data XY Processed
Mineral: Fluorapatite
Rruff sample: R050529
Ideal chemistry: Ca_5_(PO_4_)_3_F
Locality: Limburg de an Lahn, Germany
Source: University of Arizona Mineral Museum
Description: Botryoidal aggregate
Diffraction sample description: Powder
Measured chemistry: (Ca_4.68_[box]_0.32_)_Σ=5_((PO_4_)_2.36_(CO_3_)_0.64_)_Σ=3_F_1.00_
Cell parameters: a: 9.3385(2) b: 9.3385(2) c: 6.8939(3) alpha: 90. beta: 90. gamma: 120. volume: 520.66(3) crystal system: hexagonal
x	intensity
5	0
5.22	9.777
5.44	4.11
5.66	9.712
5.88	9.431
6.1	6.952
6.32	15.436
6.54	11.047
6.76	8.493
6.98	11.991
7.2	6.351
7.42	11.982
7.64	5.523
7.86	5.234
8.08	2.596
8.3	7.037
8.52	1.796
8.74	18.218
8.96	7.7
9.18	8.051
9.4	6.032
9.62	0.358
9.84	5.381
10.06	3.511
10.28	7.428
10.5	6.598
10.72	9.445
10.94	108.401
11.16	16.576
11.38	0.708
11.6	6
11.82	6.465
12.04	5.628
12.26	8.209
12.48	6.487
12.7	1.183
12.92	7.805
13.14	13.96
13.36	7.138
13.58	8.43
13.8	6.625
14.02	11.626
14.24	1.586
14.46	2.621
14.68	7.462
14.9	1.651
15.12	10.713
15.34	6.872
15.56	6.043
15.78	0.034
16	3.16
16.22	3.102
16.44	9.24
16.66	2.289
16.88	12.521
17.1	7.573
17.32	3.728
17.54	5.21
17.76	9.298
17.98	9.314
18.2	10.445
18.42	3.507
18.64	5.565
18.86	11.602
19.08	4.623
19.3	4.498
19.52	2.423
19.74	0.589
19.96	5.1
20.18	3.012
20.4	3.255
20.62	1.211
20.84	7.115
21.06	0.978
21.28	5.101
21.5	2.135
21.72	6.42
21.94	36.435
22.16	4.23
22.38	4.318
22.6	7.346
22.82	7.139
23.04	14.248
23.26	10.295
23.48	5.282
23.7	1.337
23.92	0.208
24.14	8.029
24.36	0.063
24.58	5.842
24.8	3.64
25.02	4.522
25.24	4.447
25.46	5.315
25.68	4.289
25.9	86.425
26.12	2.464
26.34	8.541
26.56	4.509
26.78	1.804
27	5.767
27.22	2.696
27.44	0.583
27.66	4.506
27.88	4.351
28.1	36.972
28.32	2.899
28.54	1.729
28.76	8.444
28.98	0.494
29.2	121.451
29.42	3.608
29.64	2.743
29.86	0.801
30.08	2.802
30.3	6.288
30.52	1.162
30.74	3.889
30.96	2.463
31.18	12.165
31.4	5.579
31.62	3.422
31.84	18.899
32.06	302.408
32.28	108.948
32.5	2.632
32.72	10.437
32.94	4.379
33.16	223.43
33.38	43.605
33.6	10.124
33.82	3.393
34.04	13.646
34.26	40.209
34.48	0.31
34.7	1.08
34.92	0.398
35.14	3.284
35.36	0.629
35.58	6.049
35.8	21.374
36.02	2.408
36.24	6.615
36.46	9.712
36.68	3.153
36.9	2.626
37.12	6.761
37.34	3.883
37.56	8.973
37.78	5.158
38	6.991
38.22	6.781
38.44	1.879
38.66	3.73
38.88	2.153
39.1	0.776
39.32	22.321
39.54	7.224
39.76	8.099
39.98	9.138
40.2	118.957
40.42	10.114
40.64	2.381
40.86	12.418
41.08	0.606
41.3	5.735
41.52	7.889
41.74	0.874
41.96	9.249
42.18	12.338
42.4	20.28
42.62	9.522
42.84	0.229
43.06	7.495
43.28	5.29
43.5	1.282
43.72	6.242
43.94	11.259
44.16	2.307
44.38	1.965
44.6	0.075
44.82	5.93
45.04	3.827
45.26	7.074
45.48	7.667
45.7	5.483
45.92	0.367
46.14	0.274
46.36	10.29
46.58	3.022
46.8	13.969
47.02	54.018
47.24	5.719
47.46	4.295
47.68	0.12
47.9	6.027
48.12	3.013
48.34	35.97
48.56	7.94
48.78	1.116
49	17.252
49.22	10.666
49.44	8.715
49.66	50.9
49.88	11.924
50.1	11.748
50.32	3.876
50.54	3.682
50.76	9.5
50.98	54.348
51.2	13.969
51.42	6.422
51.64	18.995
51.86	34.817
52.08	1.765
52.3	7.888
52.52	15.936
52.74	8.223
52.96	0.63
53.18	11.222
53.4	1.823
53.62	6.531
53.84	1.096
54.06	5.372
54.28	1.768
54.5	0.845
54.72	3.465
54.94	0.126
55.16	5.848
55.38	3.877
55.6	4.695
55.82	1.623
56.04	3.353
56.26	22.191
56.48	9.976
56.7	3.2
56.92	3.112
57.14	3.103
57.36	5.866
57.58	4.865
57.8	1.063
58.02	0.111
58.24	8.07
58.46	3.074
58.68	8.15
58.9	1.408
59.12	5.29
59.34	2.348
59.56	1.173
59.78	3.166
60	1.14
60.22	6.318
60.44	9.245
60.66	14.217
60.88	8.175
61.1	11.065
61.32	3.711
61.54	1.541
61.76	3.842
61.98	4.797
62.2	6.664
62.42	6.542
62.64	2.15
62.86	0.924
63.08	0.837
63.3	5.768
63.52	19.728
63.74	10.049
63.96	9.145
64.18	22.977
64.4	7.1
64.62	9.279
64.84	2.471
65.06	0.617
65.28	6.096
65.5	9.443
65.72	15.621
65.94	5.789
66.16	1.556
66.38	3.727
66.6	1.71
66.82	6.876
67.04	6.984
67.26	3.082
67.48	9.203
67.7	6.977
67.92	0.833
68.14	3.86
68.36	4.846
68.58	3.878
68.8	3.764
69.02	4.678
69.24	2.505
69.46	1.62
69.68	2.853
69.9	1.728
70.12	1.748
70.34	7.837
70.56	0.024
70.78	3.043
71	0.89
71.22	4.763
71.44	0.641
71.66	2.459
71.88	3.33
72.1	1.928
72.32	6.93
72.54	3.745
72.76	0.881
72.98	14.908
73.2	8.904
73.42	3.957
73.64	8.014
73.86	9.228
74.08	0.626
74.3	6.53
74.52	8.573
74.74	7.487
74.96	2.609
75.18	4.728
75.4	4.515
75.62	9.44
75.84	5.371
76.06	5.332
76.28	4.144
76.5	0.992
76.72	5.826
76.94	10.952
77.16	11.147
77.38	20.272
77.6	13.912
77.82	3.876
78.04	7.009
78.26	3.204
78.48	7.434
78.7	6.601
78.92	11.805
79.14	17.128
79.36	4.258
79.58	4.221
79.8	1.096
80.02	4.228
80.24	5.412
80.46	2.422
80.68	3.312
80.9	3.156
81.12	2.093
81.34	3.028
81.56	3.715
81.78	4.561
82	0.817
82.22	5.715
82.44	9.477
82.66	9.299
82.88	3.197
83.1	8.202
83.32	2.135
83.54	3.044
83.76	5.033
83.98	9.049
84.2	8.113
84.42	4.073
84.64	5.281
84.86	7.434
85.08	4.526
85.3	1.453
85.52	1.61
85.74	3.805
85.96	3.83
86.18	3.829
86.4	7.83
86.62	0.502
86.84	2.616
87.06	4.452
87.28	6.501
87.5	3.576
87.72	2.707
87.94	1.101
88.16	7.77
88.38	6.774
88.6	4.775
88.82	0.801
89.04	1.259
89.26	13.748
89.48	10.31
89.7	6.929
89.92	4.046
