Measurement: Powder, Xray Data XY Processed
Mineral: Fluorapatite
Rruff sample: R060184
Ideal chemistry: Ca_5_(PO_4_)_3_F
Locality: Yates mine, Otter Lake, Quebec, Canada
Source: Lloyd Twaites
Description: Green colored fragment of a hexagonal prism
Diffraction sample description: Powder
Measured chemistry: (Ca_0.99_Ce_0.01_)_5.00_((P_0.98_Si_0.01_S_0.01_)O_4_)_3_F_1.00_
Cell parameters: a: 9.3828(1) b: 9.3828(1) c: 6.8976(2) alpha: 90 beta: 90 gamma: 120 volume: 525.88(2) crystal system: hexagonal
x	intensity
5	0
5.22	0.629
5.44	1.298
5.66	12.451
5.88	5.755
6.1	3.104
6.32	1.199
6.54	3.168
6.76	5.706
6.98	14.507
7.2	13.455
7.42	8.21
7.64	5.042
7.86	13.715
8.08	5.676
8.3	0.58
8.52	9.125
8.74	2.658
8.96	3.079
9.18	1.684
9.4	4.459
9.62	11.474
9.84	1.516
10.06	4.473
10.28	0.593
10.5	3.454
10.72	6.458
10.94	22.772
11.16	14.99
11.38	5.376
11.6	7.598
11.82	0.825
12.04	1.019
12.26	3.331
12.48	1.581
12.7	6.985
12.92	4.3
13.14	5.508
13.36	5.456
13.58	9.572
13.8	3.427
14.02	0.614
14.24	5.655
14.46	5.686
14.68	0.335
14.9	2.63
15.12	3.378
15.34	4.293
15.56	0.333
15.78	0.245
16	9.228
16.22	3.345
16.44	2.28
16.66	1.267
16.88	4.238
17.1	4.384
17.32	5.501
17.54	4.616
17.76	2.789
17.98	3.792
18.2	8.906
18.42	0.024
18.64	5.947
18.86	2.987
19.08	7.989
19.3	3.131
19.52	6.028
19.74	2.007
19.96	3.866
20.18	2.704
20.4	2.644
20.62	4.576
20.84	0.591
21.06	3.309
21.28	2.361
21.5	9.285
21.72	3.207
21.94	26.178
22.16	0.185
22.38	0.256
22.6	5.357
22.82	3.442
23.04	10.661
23.26	4.878
23.48	0.991
23.7	6.037
23.92	0.971
24.14	0.886
24.36	8.108
24.58	2.155
24.8	6.095
25.02	1.959
25.24	5.854
25.46	4.665
25.68	1.514
25.9	111.544
26.12	5.508
26.34	2.547
26.56	3.636
26.78	0.6
27	2.523
27.22	0.477
27.44	2.442
27.66	1.289
27.88	3.223
28.1	9.995
28.32	8.963
28.54	2.018
28.76	5.783
28.98	7.765
29.2	44.229
29.42	1.267
29.64	1.428
29.86	1.457
30.08	3.506
30.3	0.487
30.52	2.326
30.74	0.064
30.96	4.714
31.18	3.438
31.4	0.012
31.62	4.397
31.84	17.28
32.06	83.932
32.28	122.839
32.5	0.297
32.72	6.985
32.94	6.085
33.16	72.237
33.38	5.596
33.6	3.923
33.82	4.358
34.04	12.666
34.26	24.761
34.48	2.978
34.7	8.104
34.92	2.282
35.14	3.078
35.36	3.175
35.58	2.321
35.8	2.341
36.02	3.418
36.24	1.452
36.46	6.506
36.68	3.737
36.9	1.893
37.12	7.066
37.34	2.203
37.56	0.721
37.78	3.456
38	6.428
38.22	6.322
38.44	2.272
38.66	2.183
38.88	4.036
39.1	5.73
39.32	14.619
39.54	7.459
39.76	4.428
39.98	8.507
40.2	9.579
40.42	0.251
40.64	8.8
40.86	1.209
41.08	1.763
41.3	2.836
41.52	0.895
41.74	2.923
41.96	5.236
42.18	10.229
42.4	6.13
42.62	2.942
42.84	4.805
43.06	1.881
43.28	1.937
43.5	1.919
43.72	5.973
43.94	4.165
44.16	1.09
44.38	0.048
44.6	1.927
44.82	3.945
45.04	3.154
45.26	3.144
45.48	13.064
45.7	2.998
45.92	1.996
46.14	0.953
46.36	0.015
46.58	7.006
46.8	18.166
47.02	35.066
47.24	1.934
47.46	5.656
47.68	7.49
47.9	2.306
48.12	4.179
48.34	14.026
48.56	2.851
48.78	6.464
49	2.327
49.22	3.544
49.44	4.62
49.66	33.606
49.88	6.564
50.1	0.806
50.32	3.885
50.54	0.865
50.76	64.898
50.98	2.184
51.2	3.238
51.42	7.09
51.64	11.671
51.86	1.915
52.08	0.991
52.3	43.042
52.52	8.038
52.74	1.225
52.96	1.435
53.18	21.586
53.4	3.51
53.62	1.81
53.84	0.076
54.06	3.143
54.28	5.334
54.5	3.548
54.72	9.727
54.94	0.705
55.16	4.678
55.38	0.347
55.6	2.737
55.82	0.749
56.04	3.58
56.26	12.444
56.48	2.398
56.7	1.127
56.92	2.097
57.14	0.158
57.36	3.125
57.58	0.112
57.8	4.211
58.02	3.146
58.24	2.116
58.46	2.178
58.68	1.242
58.9	5.306
59.12	7.359
59.34	2.243
59.56	0.137
59.78	2.116
60	1.125
60.22	1.005
60.44	11.019
60.66	1.006
60.88	5.923
61.1	0.849
61.32	2.715
61.54	2.704
61.76	5.086
61.98	4.07
62.2	3.047
62.42	8.07
62.64	1.051
62.86	0.996
63.08	5.977
63.3	23.948
63.52	2.923
63.74	4.092
63.96	6.254
64.18	8.935
64.4	13.897
64.62	5.981
64.84	1.001
65.06	3.144
65.28	4.241
65.5	9.348
65.72	6.439
65.94	3.5
66.16	1.532
66.38	1.533
66.6	6.711
66.82	1.786
67.04	7.892
67.26	1.89
67.48	1.106
67.7	1.884
67.92	0.108
68.14	2.998
68.36	6.07
68.58	2.068
68.8	0.076
69.02	0.144
69.24	0.929
69.46	1.836
69.68	1.832
69.9	2.807
70.12	2.876
70.34	0.809
70.56	1.833
70.78	5.702
71	4.634
71.22	2.596
71.44	0.456
71.66	0.543
71.88	1.564
72.1	4.582
72.32	5.649
72.54	2.652
72.76	4.746
72.98	4.71
73.2	2.732
73.42	3.728
73.64	2.778
73.86	4.832
74.08	4.878
74.3	12.75
74.52	6.587
74.74	0.398
74.96	1.41
75.18	3.321
75.4	2.194
75.62	3.12
75.84	4.134
76.06	5.023
76.28	1.096
76.5	5.764
76.72	1.875
76.94	3.039
77.16	25.051
77.38	22.977
77.6	1
77.82	6.1
78.04	7.234
78.26	0.408
78.48	7.59
78.7	6.769
78.92	4.886
79.14	5.896
79.36	0.785
79.58	1.932
79.8	0.011
80.02	3.083
80.24	0.099
80.46	1.021
80.68	3.957
80.9	2.936
81.12	2.924
81.34	7.903
81.56	3.886
81.78	4.873
82	1.868
82.22	3.901
82.44	5.9
82.66	3.828
82.88	1.737
83.1	3.852
83.32	4.699
83.54	3.537
83.76	14.499
83.98	7.386
84.2	5.332
84.42	6.223
84.64	6.15
84.86	2.064
85.08	5.062
85.3	6.015
85.52	2.037
85.74	1.275
85.96	3.396
86.18	1.358
86.4	1.381
86.62	2.291
86.84	1.701
87.06	0.222
87.28	10.132
87.5	6.282
87.72	4.204
87.94	3.091
88.16	3.867
88.38	2.777
88.6	3.835
88.82	4.931
89.04	4.02
89.26	8.025
89.48	3.135
89.7	1.489
89.92	5.771
