Measurement: Powder, Xray Data XY Processed
Mineral: Fluorapatite
Rruff sample: R050274
Ideal chemistry: Ca_5_(PO_4_)_3_F
Locality: Minas Gerais, Brazil
Source: Marcus Origlieri
Description: Aggregate of blue crystal fragments separated by veins of quartz
Diffraction sample description: Powder
Measured chemistry: Ca_5.00_((P_0.97_Si_0.02_S_0.01_)O_4_)_3_(F_0.90_Cl_0.10_)
Cell parameters: a: 9.4194(1) b: 9.4194(1) c: 6.8827(2) alpha: 90 beta: 90 gamma: 120 volume: 528.85(2) crystal system: hexagonal
x	intensity
5	0
5.22	12.4656
5.44	1.18123
5.66	7.29114
5.88	7.67995
6.1	10.3893
6.32	6.20523
6.54	10.8422
6.76	4.95326
6.98	15.4711
7.2	8.95215
7.42	12.2752
7.64	7.76473
7.86	0.497727
8.08	2.91036
8.3	0.708595
8.52	3.61109
8.74	6.1111
8.96	0.640267
9.18	2.27237
9.4	3.85714
9.62	1.49849
9.84	3.36225
10.06	1.83878
10.28	6.96449
10.5	9.92505
10.72	10.0842
10.94	44.2751
11.16	5.38999
11.38	6.4463
11.6	1.73548
11.82	2.01862
12.04	9.46644
12.26	3.61895
12.48	4.82045
12.7	1.04437
12.92	0.787241
13.14	7.20396
13.36	2.06846
13.58	4.14734
13.8	2.38919
14.02	7.51513
14.24	0.389059
14.46	2.52497
14.68	3.80169
14.9	0.197598
15.12	2.88731
15.34	3.30151
15.56	3.35064
15.78	6.41214
16	1.32103
16.22	4.23843
16.44	2.73787
16.66	2.55031
16.88	13.5539
17.1	1.51957
17.32	7.61921
17.54	3.65375
17.76	1.37672
17.98	6.45571
18.2	1.71733
18.42	3.77084
18.64	8.85651
18.86	6.86722
19.08	5.68139
19.3	3.71929
19.52	2.81085
19.74	1.81314
19.96	4.87114
20.18	12.8751
20.4	0.794352
20.62	4.74697
20.84	7.72678
21.06	0.655545
21.28	0.551502
21.5	0.711791
21.72	7.81417
21.94	9.66588
22.16	0.649181
22.38	3.61445
22.6	2.64351
22.82	2.64958
23.04	12.6455
23.26	0.347565
23.48	2.84532
23.7	2.8971
23.92	0.252545
24.14	3.73894
24.36	0.723917
24.58	2.68385
24.8	0.630212
25.02	8.54118
25.24	0.435068
25.46	14.4501
25.68	3.46242
25.9	47.4434
26.12	10.4775
26.34	2.53092
26.56	0.498386
26.78	4.62438
27	3.64964
27.22	1.37163
27.44	2.63136
27.66	2.57691
27.88	0.478584
28.1	6.41454
28.32	5.31673
28.54	3.26109
28.76	1.08935
28.98	31.2331
29.2	1.32093
29.42	6.59154
29.64	0.813668
29.86	5.84081
30.08	1.1441
30.3	2.1027
30.52	12.7523
30.74	3.40334
30.96	3.99389
31.18	0.39522
31.4	1.9335
31.62	4.44143
31.84	384.873
32.06	27.3243
32.28	211.16
32.5	7.13701
32.72	4.29703
32.94	62.5207
33.16	15.7372
33.38	0.886662
33.6	8.45777
33.82	7.19443
34.04	11.4926
34.26	24.8623
34.48	2.21646
34.7	0.376778
34.92	7.28041
35.14	2.59584
35.36	3.85169
35.58	14.0822
35.8	4.31175
36.02	4.33616
36.24	2.36742
36.46	4.52548
36.68	2.67593
36.9	6.93271
37.12	5.03749
37.34	3.11324
37.56	2.8105
37.78	1.91804
38	4.82707
38.22	5.59911
38.44	4.38706
38.66	3.17476
38.88	8.00938
39.1	1.89359
39.32	8.73517
39.54	4.46349
39.76	6.41115
39.98	121.395
40.2	0.65747
40.42	0.349364
40.64	8.51469
40.86	3.57064
41.08	5.67496
41.3	9.78982
41.52	0.08976
41.74	0.252801
41.96	6.31115
42.18	23.5199
42.4	9.58375
42.62	1.44082
42.84	2.502
43.06	2.4201
43.28	2.3773
43.5	2.37473
43.72	6.41233
43.94	46.1628
44.16	0.962254
44.38	1.78894
44.6	6.52867
44.82	5.6303
45.04	4.75212
45.26	7.68258
45.48	6.73458
45.7	1.69182
45.92	2.48192
46.14	4.56762
46.36	2.40382
46.58	5.56268
46.8	81.4179
47.02	9.25671
47.24	4.94951
47.46	3.618
47.68	0.335184
47.9	0.216416
48.12	9.33074
48.34	3.25126
48.56	6.88561
48.78	9.77357
49	5.45218
49.22	2.59923
49.44	11.5127
49.66	57.4722
49.88	0.508163
50.1	2.60144
50.32	1.58626
50.54	23.5247
50.76	14.8054
50.98	2.96431
51.2	3.04423
51.42	6.27505
51.64	9.39999
51.86	2.80469
52.08	10.0391
52.3	39.2276
52.52	3.44474
52.74	4.97548
52.96	3.16889
53.18	30.2503
53.4	64.4632
53.62	1.79218
53.84	4.84934
54.06	0.011642
54.28	1.04376
54.5	5.12189
54.72	5.18063
54.94	3.1993
55.16	2.00334
55.38	1.90043
55.6	0.953052
55.82	3.01506
56.04	6.92227
56.26	1.88586
56.48	1.85807
56.7	1.76436
56.92	0.833847
57.14	3.81888
57.36	13.887
57.58	2.82092
57.8	5.76309
58.02	0.065973
58.24	8.93691
58.46	4.01565
58.68	2.02961
58.9	0.080234
59.12	4.07004
59.34	1.16505
59.56	0.2039
59.78	5.21636
60	10.287
60.22	7.70008
60.44	5.42175
60.66	6.37449
60.88	2.31246
61.1	4.32436
61.32	3.34385
61.54	2.38005
61.76	24.2983
61.98	5.18301
62.2	1.95163
62.42	1.76962
62.64	4.41721
62.86	0.333072
63.08	64.1972
63.3	10.952
63.52	2.94698
63.74	8.04731
63.96	6.92474
64.18	10.8827
64.4	13.9812
64.62	0.893999
64.84	4.44004
65.06	13.4371
65.28	10.5768
65.5	5.73469
65.72	0.060495
65.94	1.0756
66.16	1.04284
66.38	5.25007
66.6	4.36511
66.82	1.55635
67.04	2.57834
67.26	3.59157
67.48	1.66091
67.7	3.70323
67.92	1.82966
68.14	3.79053
68.36	1.81646
68.58	4.73266
68.8	6.68453
69.02	1.28261
69.24	0.751374
69.46	1.80867
69.68	5.819
69.9	5.9167
70.12	1.02826
70.34	2.02174
70.56	1.01557
70.78	2.97304
71	0.95141
71.22	1.07465
71.44	1.88724
71.66	6.79294
71.88	5.66518
72.1	6.68009
72.32	12.832
72.54	13.7466
72.76	0.383628
72.98	3.56109
73.2	0.508423
73.42	1.50407
73.64	1.56644
73.86	5.41117
74.08	16.1963
74.3	7.13617
74.52	4.9519
74.74	4.35087
74.96	5.11177
75.18	2.88563
75.4	1.22103
75.62	7.6119
75.84	15.3676
76.06	2.11342
76.28	5.07557
76.5	3.17344
76.72	7.21064
76.94	2.34491
77.16	3.52612
77.38	5.75657
77.6	0.952354
77.82	0.291487
78.04	6.64572
78.26	15.1724
78.48	10.4502
78.7	2.71286
78.92	0.776904
79.14	1.80465
79.36	1.03501
79.58	2.16189
79.8	5.20344
80.02	2.19695
80.24	1.13447
80.46	8.08082
80.68	0.145095
80.9	1.851
81.12	1.73022
81.34	1.62377
81.56	2.61643
81.78	11.6022
82	11.4129
82.22	4.30378
82.44	4.17674
82.66	2.0293
82.88	5.87244
83.1	3.86589
83.32	5.71537
83.54	4.62346
83.76	8.63965
83.98	1.28919
84.2	2.66374
84.42	7.68017
84.64	7.79352
84.86	0.069124
85.08	0.895888
85.3	5.14073
85.52	2.17615
85.74	9.34457
85.96	2.58046
86.18	2.55932
86.4	4.35905
86.62	3.3299
86.84	2.28855
87.06	4.14593
87.28	7.0694
87.5	24.9149
87.72	5.83502
87.94	0.780442
88.16	2.73821
88.38	7.6769
88.6	18.7688
88.82	9.97984
89.04	1.15385
89.26	2.42184
89.48	1.85055
89.7	2.36306
89.92	0.212255
