Measurement: Powder, Xray Data XY Processed
Mineral: Fluorapatite
Rruff sample: R050401
Ideal chemistry: Ca_5_(PO_4_)_3_F
Locality: Urbano mine, Golconda District, Minas Gerais, Brazil
Source: Bob Downs
Description: Pale purple hexagonal prism associated with albite R050402
Diffraction sample description: Powder
Measured chemistry: (Ca_0.99_Mn_0.01_)_5_(P_1.00_O_4_)_3_F_1.00_
Cell parameters: a: 9.3675(2) b: 9.3675(2) c: 6.8764(2) alpha: 90. beta: 90. gamma: 120. volume: 522.57(2) crystal system: hexagonal
x	intensity
5	0
5.22	4.72776
5.44	3.88844
5.66	8.6381
5.88	5.57053
6.1	9.69211
6.32	0.125308
6.54	8.44849
6.76	8.72653
6.98	8.42454
7.2	6.27464
7.42	0.855934
7.64	4.52011
7.86	1.54068
8.08	9.45848
8.3	0.0804
8.52	11.6396
8.74	4.24144
8.96	1.9176
9.18	2.099
9.4	5.92959
9.62	12.8228
9.84	2.9682
10.06	6.28929
10.28	5.1101
10.5	5.89833
10.72	10.1856
10.94	26.2655
11.16	5.17006
11.38	5.99225
11.6	1.94813
11.82	4.99558
12.04	10.1064
12.26	1.17427
12.48	4.16331
12.7	5.19916
12.92	11.2559
13.14	0.907036
13.36	1.26711
13.58	2.41083
13.8	6.85634
14.02	1.0104
14.24	1.51421
14.46	5.60323
14.68	6.60577
14.9	4.67237
15.12	6.74406
15.34	0.762739
15.56	3.85834
15.78	8.76676
16	2.71084
16.22	11.7975
16.44	2.80624
16.66	4.49843
16.88	17.6048
17.1	4.80457
17.32	3.08609
17.54	2.16019
17.76	5.30818
17.98	5.35475
18.2	6.57847
18.42	3.75439
18.64	4.60486
18.86	5.69368
19.08	6.95407
19.3	8.05679
19.52	2.86659
19.74	6.01833
19.96	6.01041
20.18	4.00197
20.4	0.02117
20.62	1.16692
20.84	6.51231
21.06	3.3851
21.28	6.30621
21.5	3.96639
21.72	10.8091
21.94	31.5617
22.16	7.33076
22.38	1.50033
22.6	1.56466
22.82	2.75975
23.04	17.922
23.26	2.05745
23.48	7.11435
23.7	11.2829
23.92	5.29047
24.14	0.597959
24.36	3.55484
24.58	3.50231
24.8	5.1483
25.02	6.9766
25.24	0.662858
25.46	15.6122
25.68	16.7527
25.9	138.837
26.12	6.92857
26.34	7.98631
26.56	1.2573
26.78	8.66985
27	1.57646
27.22	2.52847
27.44	8.39508
27.66	5.26866
27.88	7.07792
28.1	23.8228
28.32	10.8032
28.54	8.77899
28.76	9.92993
28.98	12.3044
29.2	43.5821
29.42	0.06686
29.64	1.23554
29.86	9.58753
30.08	1.32641
30.3	4.55478
30.52	6.20371
30.74	5.57745
30.96	3.37637
31.18	0.914786
31.4	12.8374
31.62	8.90015
31.84	76.3392
32.06	97.7883
32.28	183.327
32.5	9.50505
32.72	15.6709
32.94	16.8452
33.16	132.194
33.38	9.65952
33.6	8.38609
33.82	2.8333
34.04	9.06885
34.26	57.8304
34.48	8.42864
34.7	2.86321
34.92	3.74791
35.14	2.33864
35.36	3.70835
35.58	8.11538
35.8	5.40303
36.02	6.46235
36.24	0.698665
36.46	3.55309
36.68	2.92484
36.9	5.05887
37.12	6.0278
37.34	4.21171
37.56	1.13396
37.78	1.15978
38	6.33961
38.22	7.22023
38.44	8.00034
38.66	3.89498
38.88	1.26599
39.1	4.01868
39.32	20.8335
39.54	6.52792
39.76	9.31274
39.98	46.2613
40.2	21.1777
40.42	3.3436
40.64	14.6292
40.86	11.7821
41.08	1.77862
41.3	2.06306
41.52	5.07236
41.74	7.26857
41.96	11.6409
42.18	25.7444
42.4	12.8406
42.62	10.6319
42.84	1.53898
43.06	7.30903
43.28	5.32532
43.5	2.26189
43.72	3.25493
43.94	22.5036
44.16	6.32838
44.38	2.03236
44.6	6.1075
44.82	6.18858
45.04	0.650302
45.26	6.27865
45.48	6.19267
45.7	4.01692
45.92	7.92249
46.14	1.27984
46.36	3.42953
46.58	3.60427
46.8	14.65
47.02	55.2396
47.24	4.83165
47.46	2.37388
47.68	2.63758
47.9	6.45357
48.12	10.2627
48.34	39.0555
48.56	4.88627
48.78	1.53818
49	5.27839
49.22	2.17575
49.44	13.1246
49.66	74.0211
49.88	4.92162
50.1	6.8014
50.32	1.25054
50.54	6.75398
50.76	41.064
50.98	19.1306
51.2	1.84358
51.42	8.04268
51.64	21.1188
51.86	9.4634
52.08	6.68873
52.3	34.8084
52.52	11.8328
52.74	4.28531
52.96	2.05897
53.18	43.1452
53.4	30.4939
53.62	6.90358
53.84	2.37428
54.06	6.41286
54.28	6.68801
54.5	3.02149
54.72	3.26496
54.94	3.27293
55.16	8.33872
55.38	6.35182
55.6	1.44149
55.82	4.54855
56.04	9.60921
56.26	16.528
56.48	2.55491
56.7	7.62816
56.92	3.58834
57.14	9.74849
57.36	8.72965
57.58	5.73412
57.8	5.38926
58.02	0.384132
58.24	4.34509
58.46	1.33865
58.68	5.56732
58.9	0.648061
59.12	4.57766
59.34	4.59466
59.56	0.526486
59.78	8.51826
60	3.73387
60.22	9.79106
60.44	10.0469
60.66	7.0381
60.88	1.96664
61.1	0.248541
61.32	0.306494
61.54	2.66212
61.76	13.9846
61.98	13.8709
62.2	4.68907
62.42	3.2674
62.64	2.8966
62.86	1.56845
63.08	2.34279
63.3	35.1234
63.52	18.9363
63.74	4.97128
63.96	8.05532
64.18	19.5867
64.4	23.6125
64.62	5.71617
64.84	4.98085
65.06	2.23104
65.28	4.58757
65.5	5.78719
65.72	12.0085
65.94	3.19115
66.16	0.720275
66.38	2.22612
66.6	5.45062
66.82	5.69965
67.04	6.80643
67.26	0.092701
67.48	5.0748
67.7	0.131123
67.92	5.2841
68.14	1.71686
68.36	0.696917
68.58	3.67269
68.8	3.84539
69.02	3.79376
69.24	1.68674
69.46	1.52112
69.68	0.489896
69.9	0.405915
70.12	2.30034
70.34	6.3805
70.56	1.03242
70.78	2.95572
71	1.79909
71.22	1.59227
71.44	7.5533
71.66	2.52041
71.88	13.593
72.1	8.75797
72.32	6.83892
72.54	8.95639
72.76	6.93671
72.98	2.90136
73.2	3.9149
73.42	3.93813
73.64	1.00213
73.86	0.037018
74.08	8.03097
74.3	3.9358
74.52	4.49007
74.74	5.3389
74.96	3.29694
75.18	0.297539
75.4	4.18271
75.62	6.15796
75.84	10.1157
76.06	4.94378
76.28	3.78604
76.5	2.6491
76.72	2.54096
76.94	10.6509
77.16	5.68976
77.38	8.5669
77.6	17.37
77.82	5.46868
78.04	1.21735
78.26	2.0253
78.48	6.41907
78.7	12.7326
78.92	12.0298
79.14	0.276514
79.36	1.42478
79.58	3.75361
79.8	2.93373
80.02	6.98281
80.24	9.98916
80.46	1.87427
80.68	5.75232
80.9	2.4799
81.12	1.26815
81.34	5.13076
81.56	7.45286
81.78	1.24616
82	5.93245
82.22	8.89568
82.44	3.82448
82.66	3.70726
82.88	6.36179
83.1	3.2266
83.32	4.10994
83.54	7.01746
83.76	8.94259
83.98	6.39899
84.2	2.43634
84.42	1.93903
84.64	9.96582
84.86	8.03375
85.08	3.18843
85.3	1.40168
85.52	7.63285
85.74	1.05407
85.96	7.16073
86.18	9.42747
86.4	4.4717
86.62	1.45898
86.84	0.083019
87.06	1.76189
87.28	1.75416
87.5	3.62764
87.72	8.6981
87.94	7.5564
88.16	10.3696
88.38	2.15269
88.6	3.31933
88.82	1.50771
89.04	19.6794
89.26	3.89373
89.48	4.02626
89.7	3.71332
89.92	3.94027
