Measurement: Powder, Xray Data XY Processed
Mineral: Fluorapatite
Rruff sample: R050369
Ideal chemistry: Ca_5_(PO_4_)_3_F
Locality: Russia
Source: Eugene Schlepp
Description: Blueish-green hexagonal prismatic crystal
Diffraction sample description: Powder
Measured chemistry: (Ca_0.99_Na_0.01_)_5_((P_0.98_S_0.02_)O_4_)_3_F_1.00_
Cell parameters: a: 9.3832(1) b: 9.3832(1) c: 6.8865(2) alpha: 90. beta: 90. gamma: 120. volume: 525.09(2) crystal system: hexagonal
x	intensity
5	0
5.22	5.16721
5.44	5.23928
5.66	0.55549
5.88	5.73233
6.1	2.77429
6.32	8.902
6.54	6.20939
6.76	11.818
6.98	10.2605
7.2	18.3337
7.42	10.0067
7.64	5.05022
7.86	5.63486
8.08	1.33408
8.3	0.970263
8.52	3.60967
8.74	6.91991
8.96	7.217
9.18	7.4479
9.4	1.47426
9.62	7.97508
9.84	0.826713
10.06	7.80876
10.28	3.89882
10.5	2.72807
10.72	7.73613
10.94	54.7184
11.16	5.78081
11.38	3.86735
11.6	2.17447
11.82	5.23778
12.04	9.42668
12.26	2.58679
12.48	5.80734
12.7	1.884
12.92	2.15359
13.14	4.02379
13.36	4.34039
13.58	1.48898
13.8	8.56409
14.02	3.54231
14.24	9.70992
14.46	5.79539
14.68	1.00039
14.9	1.13759
15.12	1.2882
15.34	0.479424
15.56	6.60224
15.78	8.48469
16	3.61719
16.22	0.237954
16.44	3.89578
16.66	2.96915
16.88	21.4212
17.1	10.6046
17.32	9.59596
17.54	5.73299
17.76	4.64666
17.98	2.72874
18.2	4.79773
18.42	3.81109
18.64	3.73221
18.86	6.92936
19.08	10.0075
19.3	0.707566
19.52	4.63582
19.74	4.7282
19.96	3.75504
20.18	4.82256
20.4	6.0548
20.62	9.01715
20.84	0.986966
21.06	1.07459
21.28	4.82618
21.5	5.8151
21.72	3.76909
21.94	21.6467
22.16	5.56991
22.38	2.50601
22.6	0.557852
22.82	11.4873
23.04	29.4847
23.26	4.61226
23.48	4.68953
23.7	5.76504
23.92	2.72536
24.14	2.67223
24.36	1.6161
24.58	1.5027
24.8	5.35038
25.02	5.06837
25.24	3.90678
25.46	16.9535
25.68	4.78524
25.9	227.604
26.12	0.163462
26.34	6.85689
26.56	0.978755
26.78	1.19612
27	3.2458
27.22	2.29031
27.44	2.47278
27.66	0.398455
27.88	1.44678
28.1	14.3996
28.32	11.3135
28.54	4.40833
28.76	9.2518
28.98	11.3408
29.2	27.2858
29.42	6.61201
29.64	1.40764
29.86	8.44027
30.08	1.69251
30.3	4.50547
30.52	4.21375
30.74	4.70267
30.96	1.00414
31.18	7.49065
31.4	13.8199
31.62	9.32496
31.84	64.4922
32.06	83.128
32.28	224.97
32.5	15.5959
32.72	11.7055
32.94	17.7788
33.16	166.993
33.38	1.43237
33.6	1.88099
33.82	1.44149
34.04	8.0329
34.26	43.4959
34.48	5.92842
34.7	5.14422
34.92	3.16318
35.14	7.32592
35.36	4.86633
35.58	16.1444
35.8	8.30921
36.02	7.60632
36.24	3.77834
36.46	3.84135
36.68	1.05259
36.9	2.2443
37.12	4.48644
37.34	0.712559
37.56	6.89662
37.78	4.68749
38	3.79303
38.22	2.67517
38.44	1.55858
38.66	2.31774
38.88	2.11156
39.1	4.88778
39.32	23.7325
39.54	4.42954
39.76	0.219953
39.98	57.9976
40.2	16.1195
40.42	1.11555
40.64	22.2345
40.86	9.64541
41.08	2.60381
41.3	2.70539
41.52	2.80428
41.74	1.85562
41.96	1.05933
42.18	32.1043
42.4	11.118
42.62	3.18532
42.84	5.1039
43.06	6.94178
43.28	2.83645
43.5	2.21122
43.72	4.83342
43.94	13.8112
44.16	3.79843
44.38	0.775235
44.6	5.57158
44.82	0.475938
45.04	1.76839
45.26	4.8819
45.48	14.7713
45.7	2.5889
45.92	0.594577
46.14	3.45378
46.36	8.6906
46.58	7.79633
46.8	32.8342
47.02	48.7634
47.24	10.4039
47.46	1.77137
47.68	3.5448
47.9	2.28385
48.12	7.45528
48.34	19.1558
48.56	5.89091
48.78	3.3282
49	12.0545
49.22	1.68796
49.44	8.66863
49.66	51.5621
49.88	8.84819
50.1	3.21035
50.32	4.24616
50.54	3.87364
50.76	57.9993
50.98	4.28807
51.2	1.57908
51.42	4.43956
51.64	25.7006
51.86	4.92134
52.08	5.12504
52.3	39.9607
52.52	14.9222
52.74	0.788229
52.96	4.53193
53.18	50.0284
53.4	14.4162
53.62	5.78894
53.84	1.06739
54.06	1.36681
54.28	2.46465
54.5	5.81995
54.72	0.033706
54.94	4.05678
55.16	3.10719
55.38	2.02124
55.6	3.00916
55.82	2.78628
56.04	20.6529
56.26	30.5587
56.48	2.38413
56.7	6.50729
56.92	4.29816
57.14	4.30636
57.36	7.33981
57.58	1.57297
57.8	0.648318
58.02	0.54289
58.24	4.67837
58.46	10.1152
58.68	5.30327
58.9	3.35369
59.12	3.23893
59.34	7.237
59.56	0.593347
59.78	0.391709
60	2.37991
60.22	9.37283
60.44	7.42784
60.66	5.37184
60.88	8.00672
61.1	1.11124
61.32	1.28708
61.54	2.33499
61.76	21.2992
61.98	12.1647
62.2	2.11058
62.42	0.89498
62.64	1.7109
62.86	3.7029
63.08	3.58895
63.3	21.4803
63.52	4.34695
63.74	11.9374
63.96	8.16443
64.18	11.1012
64.4	16.0799
64.62	2.13271
64.84	9.26063
65.06	0.419515
65.28	6.41272
65.5	10.5148
65.72	7.64457
65.94	0.26748
66.16	0.181206
66.38	4.80333
66.6	11.9585
66.82	8.23089
67.04	5.46138
67.26	1.54136
67.48	6.45259
67.7	3.5456
67.92	4.69938
68.14	1.73196
68.36	1.79967
68.58	2.73122
68.8	2.68468
69.02	2.73464
69.24	1.56586
69.46	1.42157
69.68	1.39948
69.9	3.3983
70.12	1.5769
70.34	4.39319
70.56	6.45167
70.78	0.351792
71	0.26184
71.22	2.18263
71.44	2.04801
71.66	1.02403
71.88	7.98974
72.1	3.97063
72.32	3.02106
72.54	6.08853
72.76	5.15414
72.98	6.05301
73.2	1.07434
73.42	6.09172
73.64	1.10258
73.86	2.09855
74.08	9.28605
74.3	11.211
74.52	12.1239
74.74	2.83705
74.96	0.041704
75.18	2.99215
75.4	4.96622
75.62	14.8072
75.84	9.71746
76.06	7.63505
76.28	1.5371
76.5	5.23446
76.72	1.23934
76.94	8.26218
77.16	16.3881
77.38	8.17355
77.6	0.917531
77.82	5.08514
78.04	6.38648
78.26	4.55552
78.48	7.72115
78.7	3.02272
78.92	2.30449
79.14	5.43194
79.36	3.52686
79.58	3.66481
79.8	3.87265
80.02	4.98123
80.24	2.93073
80.46	1.76468
80.68	3.75264
80.9	0.688777
81.12	2.54535
81.34	0.586373
81.56	2.59821
81.78	3.53106
82	8.3854
82.22	7.20538
82.44	6.0892
82.66	5.00106
82.88	0.943285
83.1	0.88362
83.32	4.07443
83.54	6.00277
83.76	6.90138
83.98	6.04246
84.2	3.99831
84.42	8.9561
84.64	1.98943
84.86	2.0384
85.08	2.07075
85.3	1.02189
85.52	1.16339
85.74	4.40963
85.96	2.48177
86.18	5.33416
86.4	0.034146
86.62	2.01907
86.84	4.9127
87.06	1.78676
87.28	5.6621
87.5	11.5378
87.72	19.4911
87.94	7.19609
88.16	11.0371
88.38	7.10539
88.6	0.246585
88.82	5.44775
89.04	4.60471
89.26	8.95847
89.48	4.38522
89.7	2.89788
89.92	2.16283
