Measurement: Powder, Xray Data XY Processed
Mineral: Forsterite
Rruff sample: R050117
Ideal chemistry: Mg_2_SiO_4_
Locality: Sapat, Gilgit, Pakistan
Source: Farooq and Nazia Sawal
Description: Fragment of a green crystal
Diffraction sample description: Powder
Measured chemistry: (Mg_1.81_Fe_0.18_Ni_0.01_)_Î£=2_Si_1.00_O_4_
Cell parameters: a: 4.7615(3) b: 10.2215(4) c: 5.9922(3) alpha: 90. beta: 90. gamma: 90. volume: 291.64(2) crystal system: orthorhombic
x	intensity
5	0
5.22	21.013
5.44	14.875
5.66	4.767
5.88	11.303
6.1	18.8
6.32	15.947
6.54	7.828
6.76	18.825
6.98	8.251
7.2	12.66
7.42	18.865
7.64	18.931
7.86	7.303
8.08	9.664
8.3	14.383
8.52	16.022
8.74	12.757
8.96	2.056
9.18	18.399
9.4	10.15
9.62	6.918
9.84	8.929
10.06	22.841
10.28	10.587
10.5	10.497
10.72	6.559
10.94	10.117
11.16	11.138
11.38	9.906
11.6	6.574
11.82	12.363
12.04	11.514
12.26	16.642
12.48	10.798
12.7	12.849
12.92	1.364
13.14	6.775
13.36	11.174
13.58	23.703
13.8	7.623
14.02	9.927
14.24	4.824
14.46	12.599
14.68	12.838
14.9	9.99
15.12	19.03
15.34	27.189
15.56	11.847
15.78	16.536
16	15.371
16.22	2.741
16.44	3.67
16.66	4.083
16.88	3.516
17.1	4.168
17.32	201.367
17.54	25.203
17.76	14.367
17.98	7.738
18.2	7.373
18.42	10.588
18.64	22.143
18.86	13.938
19.08	18.214
19.3	16.321
19.52	5.329
19.74	30.136
19.96	6.487
20.18	12.168
20.4	7.841
20.62	16.68
20.84	8.731
21.06	9.134
21.28	10.364
21.5	15.247
21.72	16.26
21.94	24.67
22.16	5.579
22.38	3.948
22.6	5.987
22.82	87.842
23.04	37.941
23.26	13.22
23.48	12.977
23.7	23.229
23.92	38.872
24.14	17.179
24.36	18.744
24.58	9.783
24.8	9.669
25.02	9.232
25.24	24.592
25.46	78.298
25.68	10.195
25.9	27.309
26.12	11.348
26.34	24.701
26.56	15.668
26.78	11.422
27	16.701
27.22	20.856
27.44	2.512
27.66	21.374
27.88	0.543
28.1	13.739
28.32	28.32
28.54	11.676
28.76	2.379
28.98	10.844
29.2	8.272
29.42	13.358
29.64	20.896
29.86	36.007
30.08	11.573
30.3	11.615
30.52	11.552
30.74	6.632
30.96	23.63
31.18	6.5
31.4	6.246
31.62	18.1
31.84	15.856
32.06	9.962
32.28	157.419
32.5	24.024
32.72	9.923
32.94	10.936
33.16	9.636
33.38	2.093
33.6	7.358
33.82	3.024
34.04	1.16
34.26	7.366
34.48	23.817
34.7	16.107
34.92	1.068
35.14	26.521
35.36	3.208
35.58	33.562
35.8	267.497
36.02	41.467
36.24	7.489
36.46	81.247
36.68	26.124
36.9	17.5
37.12	9.454
37.34	6.516
37.56	11.791
37.78	13.648
38	19.592
38.22	18.322
38.44	19.839
38.66	8.122
38.88	17.532
39.1	13.476
39.32	19.545
39.54	20.275
39.76	121.864
39.98	69.707
40.2	34.386
40.42	5.009
40.64	21.624
40.86	1.662
41.08	23.251
41.3	15.874
41.52	17.182
41.74	43.256
41.96	12.5
42.18	18.243
42.4	20.75
42.62	13.715
42.84	18.594
43.06	12.81
43.28	11.647
43.5	15.46
43.72	7.475
43.94	6.411
44.16	8.7
44.38	1.838
44.6	27.129
44.82	8.04
45.04	8.327
45.26	21.751
45.48	21.599
45.7	6.582
45.92	11.025
46.14	24.132
46.36	14.19
46.58	18.005
46.8	8.158
47.02	12.023
47.24	18.073
47.46	12.697
47.68	0.347
47.9	2.751
48.12	4.325
48.34	6.684
48.56	25.545
48.78	8.561
49	8.019
49.22	9.857
49.44	9.34
49.66	15.253
49.88	13.503
50.1	1.811
50.32	18.605
50.54	7.358
50.76	11.483
50.98	6.592
51.2	14.692
51.42	12.375
51.64	19.161
51.86	2.785
52.08	20.541
52.3	32.036
52.52	52.964
52.74	28.248
52.96	27.452
53.18	18.335
53.4	9.203
53.62	0.494
53.84	18.682
54.06	0.277
54.28	15.71
54.5	1.115
54.72	17.222
54.94	7.765
55.16	24.55
55.38	4.706
55.6	14.297
55.82	0.717
56.04	19.27
56.26	25.359
56.48	8.751
56.7	6.838
56.92	33.853
57.14	16.503
57.36	0.787
57.58	10.016
57.8	3.307
58.02	4.967
58.24	1.821
58.46	20.704
58.68	39.837
58.9	8.309
59.12	8.665
59.34	20.194
59.56	10.868
59.78	11.844
60	4.019
60.22	12.941
60.44	6.758
60.66	6.749
60.88	0.265
61.1	21.931
61.32	12.414
61.54	25.978
61.76	40.131
61.98	41.473
62.2	16.484
62.42	5.526
62.64	17.692
62.86	35.26
63.08	19.488
63.3	24.295
63.52	13.763
63.74	18.869
63.96	1.781
64.18	10.563
64.4	8.826
64.62	11.789
64.84	4.778
65.06	10.354
65.28	8.826
65.5	4.119
65.72	12.951
65.94	2.608
66.16	5.607
66.38	14.69
66.6	10.879
66.82	16.402
67.04	46.511
67.26	19.033
67.48	20.386
67.7	11.073
67.92	15.69
68.14	2.906
68.36	0.943
68.58	16.146
68.8	5.249
69.02	20.785
69.24	10.846
69.46	9.142
69.68	40.869
69.9	27.821
70.12	3.592
70.34	15.633
70.56	8.711
70.78	13.865
71	6.054
71.22	10.431
71.44	0.353
71.66	23.574
71.88	16.611
72.1	17.752
72.32	14.334
72.54	11.564
72.76	12.88
72.98	7.088
73.2	18.357
73.42	1.37
73.64	9.021
73.86	6.635
74.08	11.009
74.3	17.147
74.52	0.521
74.74	14.133
74.96	8.103
75.18	12.642
75.4	3.572
75.62	6.532
75.84	17.491
76.06	14.657
76.28	11.597
76.5	14.196
76.72	0.116
76.94	3.115
77.16	28.254
77.38	27.365
77.6	4.394
77.82	20.483
78.04	14.899
78.26	7.041
78.48	21.249
78.7	26.771
78.92	8.996
79.14	16.655
79.36	5.157
79.58	14.167
79.8	15.52
80.02	3.729
80.24	2.943
80.46	10.139
80.68	15.627
80.9	14.51
81.12	16.179
81.34	17.511
81.56	20.855
81.78	1.423
82	7.141
82.22	11.755
82.44	0.622
82.66	16.375
82.88	6.527
83.1	13.752
83.32	7.724
83.54	12.157
83.76	17.4
83.98	7.661
84.2	19.7
84.42	19.891
84.64	12.078
84.86	10.624
85.08	16.114
85.3	8.166
85.52	2.116
85.74	18.212
85.96	8.006
86.18	5.965
86.4	15.926
86.62	18.017
86.84	3.235
87.06	9.044
87.28	10.866
87.5	12.164
87.72	14.391
87.94	2.535
88.16	20.698
88.38	7.692
88.6	4.169
88.82	17.473
89.04	14.183
89.26	14.902
89.48	2.975
89.7	5.747
89.92	11.385
