Measurement: Powder, Xray Data XY Processed
Mineral: Grossular
Rruff sample: R060278
Ideal chemistry: Ca_3_Al_2_(SiO_4_)_3_
Locality: Diakon, Kayes Region, Mali
Source: Herb Obodda
Description: Dark brown dodecahedral single crystal
Diffraction sample description: Powder
Measured chemistry: (Ca_2.93_Mg_0.05_Mn_0.02_)_Σ=3_(Al_1.19_Fe^3+^_0.78_Ti_0.03_)_Σ=2_((Si_0.99_Al_0.01_)_Σ=1_O_4_)_3_
Cell parameters: a: 11.9451(4) b: 11.9451(4) c: 11.9451(4) alpha: 90 beta: 90 gamma: 90 volume: 1704.4(2) crystal system: cubic
x	intensity
5	0
5.22	10.259
5.44	4.401
5.66	0.239
5.88	0.882
6.1	5.385
6.32	12.965
6.54	4.889
6.76	13.904
6.98	21.08
7.2	9.482
7.42	15.605
7.64	3.836
7.86	4.649
8.08	10.754
8.3	6.366
8.52	7.057
8.74	3.544
8.96	1.978
9.18	14.415
9.4	7.97
9.62	9.172
9.84	0.184
10.06	2.681
10.28	10.39
10.5	5.387
10.72	7.395
10.94	9.055
11.16	3.983
11.38	8.739
11.6	10.605
11.82	1.878
12.04	15.992
12.26	2.693
12.48	7.903
12.7	5.269
12.92	4.378
13.14	6.467
13.36	1.423
13.58	9.064
13.8	9.388
14.02	10.623
14.24	4.747
14.46	5.929
14.68	7.05
14.9	0.283
15.12	7.463
15.34	12.48
15.56	4.529
15.78	11.527
16	5.328
16.22	2.858
16.44	11.073
16.66	5.187
16.88	1.844
17.1	12.756
17.32	6.972
17.54	9.825
17.76	4.603
17.98	7.905
18.2	6.722
18.42	8.631
18.64	1.683
18.86	7.702
19.08	8.678
19.3	10.801
19.52	17.746
19.74	11.825
19.96	3.78
20.18	7.689
20.4	3.423
20.62	0.788
20.84	4.068
21.06	13.102
21.28	5.262
21.5	8.48
21.72	2.566
21.94	7.649
22.16	11.049
22.38	7.29
22.6	11.322
22.82	5.304
23.04	12.167
23.26	10.902
23.48	10.089
23.7	5.642
23.92	14.26
24.14	3.002
24.36	0.689
24.58	3.004
24.8	5.793
25.02	3.611
25.24	10.376
25.46	10.661
25.68	12.797
25.9	3.468
26.12	8.583
26.34	8.964
26.56	0.22
26.78	9.277
27	10.44
27.22	9.499
27.44	9.743
27.66	3.911
27.88	10.422
28.1	11.406
28.32	14.329
28.54	2.92
28.76	7.596
28.98	1.174
29.2	2.907
29.42	1.631
29.64	4.533
29.86	13.744
30.08	70.789
30.3	14.994
30.52	13.886
30.74	8.408
30.96	0.192
31.18	11.074
31.4	9.165
31.62	9.157
31.84	1.797
32.06	5.5
32.28	12.782
32.5	9.392
32.72	11.982
32.94	1.606
33.16	13.284
33.38	13.894
33.6	213.52
33.82	28.622
34.04	16.642
34.26	2.622
34.48	1.362
34.7	4.999
34.92	0.523
35.14	8.229
35.36	19.261
35.58	5.426
35.8	7.619
36.02	1.935
36.24	0.981
36.46	7.128
36.68	17.287
36.9	67.329
37.12	14.013
37.34	16.89
37.56	2.448
37.78	4.325
38	11.552
38.22	8.761
38.44	20.091
38.66	13.103
38.88	5.082
39.1	5.973
39.32	14.889
39.54	2.92
39.76	8.889
39.98	2.775
40.2	6.838
40.42	9.474
40.64	1.211
40.86	4.891
41.08	6.723
41.3	5.706
41.52	25.706
41.74	11.582
41.96	3.837
42.18	4.106
42.4	6.379
42.62	0.338
42.84	11.672
43.06	9.93
43.28	10.149
43.5	8.221
43.72	9.362
43.94	7.464
44.16	1.75
44.38	0.483
44.6	6.416
44.82	3.532
45.04	2.872
45.26	6.834
45.48	10.9
45.7	7.519
45.92	3.493
46.14	0.592
46.36	2.621
46.58	17.648
46.8	14.316
47.02	38.317
47.24	4.081
47.46	5.782
47.68	2.79
47.9	2.944
48.12	19.989
48.34	11.527
48.56	14.633
48.78	7.453
49	10.222
49.22	7.341
49.44	11.478
49.66	5.821
49.88	11.052
50.1	2.653
50.32	10.68
50.54	12.69
50.76	8.153
50.98	2.066
51.2	16.281
51.42	4.207
51.64	10.203
51.86	11.204
52.08	8.653
52.3	9.536
52.52	5.299
52.74	3.468
52.96	7.991
53.18	30.176
53.4	5.372
53.62	7.261
53.84	13.758
54.06	8.685
54.28	6.585
54.5	9.521
54.72	9.419
54.94	0.445
55.16	1.364
55.38	26.577
55.6	26.695
55.82	9.248
56.04	1.705
56.26	0.984
56.48	0.477
56.7	0.787
56.92	3.899
57.14	6.673
57.36	5.218
57.58	16.531
57.8	136.449
58.02	45.227
58.24	5.844
58.46	5.097
58.68	0.557
58.9	2.007
59.12	2.452
59.34	8.849
59.56	3.36
59.78	12.179
60	5.045
60.22	12.337
60.44	10.639
60.66	6.224
60.88	14.459
61.1	6.03
61.32	5.94
61.54	12.755
61.76	8.64
61.98	15.066
62.2	26.509
62.42	24.412
62.64	8.38
62.86	11.165
63.08	14.403
63.3	16.357
63.52	1.644
63.74	0.35
63.96	6.33
64.18	7.442
64.4	0.934
64.62	13.962
64.84	6.746
65.06	8.52
65.28	2.317
65.5	6.029
65.72	6.863
65.94	3.962
66.16	5.198
66.38	8.446
66.6	6.339
66.82	1.635
67.04	9.317
67.26	6.469
67.48	3.538
67.7	6.009
67.92	6.067
68.14	10.11
68.36	0.508
68.58	10.459
68.8	2.278
69.02	11.415
69.24	8.146
69.46	1.018
69.68	5.826
69.9	9.799
70.12	17.443
70.34	16.76
70.56	24.579
70.78	15.122
71	8.72
71.22	12.61
71.44	7.339
71.66	12.29
71.88	6.333
72.1	8.836
72.32	9.913
72.54	45.015
72.76	10.18
72.98	2.367
73.2	6.339
73.42	2.364
73.64	11.403
73.86	8.431
74.08	8.674
74.3	17.638
74.52	25.131
74.74	9.071
74.96	1.265
75.18	7.695
75.4	1.573
75.62	9.823
75.84	7.249
76.06	6.336
76.28	4.49
76.5	12.264
76.72	6.74
76.94	8.898
77.16	2.846
77.38	7.448
77.6	5.396
77.82	11.339
78.04	7.046
78.26	0.692
78.48	13.504
78.7	7.794
78.92	6.79
79.14	6.872
79.36	5.886
79.58	14.849
79.8	15.837
80.02	2.861
80.24	1.169
80.46	1.222
80.68	6.297
80.9	4.338
81.12	8.046
81.34	2.184
81.56	4.943
81.78	10.322
82	6.346
82.22	8.46
82.44	3.491
82.66	9.609
82.88	2.432
83.1	11.616
83.32	13.833
83.54	10.084
83.76	3.068
83.98	5.895
84.2	5.674
84.42	9.665
84.64	12.374
84.86	9.342
85.08	0.849
85.3	6.04
85.52	5.059
85.74	9.14
85.96	8.943
86.18	10.459
86.4	9.481
86.62	12.216
86.84	6.095
87.06	8.053
87.28	5.109
87.5	16.049
87.72	6.095
87.94	6.109
88.16	21.529
88.38	16.736
88.6	6.178
88.82	0.948
89.04	3.225
89.26	4.726
89.48	13.121
89.7	5.006
89.92	4.226
