Measurement: Powder, Xray Data XY Processed
Mineral: Grossular
Rruff sample: R050036
Ideal chemistry: Ca_3_Al_2_(SiO_4_)_3_
Locality: Wah Wah Mountains, Utah, USA
Source: Eugene Schlepp
Description: Colorless single crystal in rhyolite matrix
Diffraction sample description: Powder
Measured chemistry: (Ca_2.95_Mg_0.05_)_Σ=3_(Al_1.70_Fe^3+^_0.30_)_Σ=2_(Si_1.00_O_4_)_3_; trace amounts of P
Cell parameters: a: 11.8851(3) b: 11.8851(3) c: 11.8851(3) alpha: 90. beta: 90. gamma: 90. volume: 1678.8(1) crystal system: cubic
x	intensity
5	0
5.22	3.779
5.44	0.919
5.66	9.947
5.88	15.355
6.1	0.254
6.32	17.584
6.54	3.401
6.76	8.827
6.98	19.423
7.2	12.012
7.42	5.565
7.64	14.874
7.86	9.239
8.08	0.568
8.3	1.125
8.52	8.016
8.74	8.629
8.96	12.413
9.18	12.835
9.4	5.141
9.62	0.997
9.84	7.898
10.06	9.09
10.28	13.135
10.5	13.376
10.72	3.254
10.94	4.862
11.16	3.64
11.38	14.246
11.6	5.28
11.82	9.45
12.04	3.206
12.26	8.46
12.48	10.759
12.7	11.163
12.92	5.5
13.14	8.665
13.36	9.014
13.58	7.158
13.8	7.255
14.02	7.279
14.24	1.217
14.46	7.259
14.68	3.102
14.9	4.91
15.12	4.102
15.34	5.969
15.56	9.408
15.78	10.436
16	7.632
16.22	0.804
16.44	1.933
16.66	10.181
16.88	8.544
17.1	8.125
17.32	10.034
17.54	10.771
17.76	17.797
17.98	6.693
18.2	9.87
18.42	10.819
18.64	15.815
18.86	1.846
19.08	7.151
19.3	5.055
19.52	4.907
19.74	4.995
19.96	14.202
20.18	5.382
20.4	12.291
20.62	18.61
20.84	18.977
21.06	5.361
21.28	9.468
21.5	16.138
21.72	10.116
21.94	1.991
22.16	4.198
22.38	3.09
22.6	1.854
22.82	1.931
23.04	2.525
23.26	4.358
23.48	8.009
23.7	5.936
23.92	8.355
24.14	7.408
24.36	10.484
24.58	1.27
24.8	10.454
25.02	2.481
25.24	8.322
25.46	6.426
25.68	2.4
25.9	12.422
26.12	12.944
26.34	0.864
26.56	10.78
26.78	13.585
27	7.496
27.22	13.408
27.44	13.598
27.66	10.597
27.88	6.766
28.1	16.554
28.32	1.381
28.54	11.715
28.76	2.327
28.98	0.108
29.2	8.849
29.42	3.636
29.64	9.8
29.86	11.385
30.08	174.578
30.3	27.256
30.52	12.505
30.74	3.913
30.96	7.395
31.18	9.757
31.4	17.067
31.62	4.041
31.84	1.144
32.06	0.647
32.28	13.36
32.5	12.663
32.72	6.209
32.94	9.556
33.16	8.395
33.38	13.53
33.6	47.09
33.82	433.525
34.04	22.577
34.26	4.363
34.48	3.329
34.7	2.64
34.92	4.913
35.14	13.577
35.36	23.002
35.58	30.589
35.8	7.973
36.02	7.24
36.24	3.492
36.46	2.505
36.68	5.861
36.9	7.421
37.12	184.296
37.34	7.334
37.56	3.031
37.78	0.098
38	5.153
38.22	16.09
38.44	0.531
38.66	138.847
38.88	6.29
39.1	1.465
39.32	8.261
39.54	6.587
39.76	9.148
39.98	3.26
40.2	13.357
40.42	0.247
40.64	9.122
40.86	5.744
41.08	0.426
41.3	7.415
41.52	19.371
41.74	55.298
41.96	3.884
42.18	10.689
42.4	0.963
42.62	2.967
42.84	6.719
43.06	23.97
43.28	16.198
43.5	0.724
43.72	13.694
43.94	3.303
44.16	16.99
44.38	9.464
44.6	8.261
44.82	10.314
45.04	4.096
45.26	7.34
45.48	8.301
45.7	6.989
45.92	6.606
46.14	12.822
46.36	5.528
46.58	1.413
46.8	8.716
47.02	15.674
47.24	58.674
47.46	11.682
47.68	3.732
47.9	8.531
48.12	2.065
48.34	9.363
48.56	21.928
48.78	14.161
49	3.247
49.22	5.678
49.44	2.051
49.66	15.096
49.88	9.374
50.1	12.632
50.32	13.967
50.54	3.531
50.76	9.658
50.98	19.698
51.2	3.699
51.42	5.646
51.64	1.487
51.86	0.593
52.08	13.48
52.3	7.3
52.52	11.883
52.74	5.38
52.96	9.225
53.18	15.205
53.4	52.856
53.62	25.635
53.84	6.619
54.06	0.811
54.28	6.583
54.5	11.242
54.72	3.101
54.94	1.007
55.16	2.163
55.38	4.692
55.6	22.746
55.82	156.671
56.04	23.076
56.26	0.976
56.48	4.002
56.7	7.833
56.92	17.847
57.14	8.92
57.36	9.063
57.58	5.499
57.8	21.27
58.02	147.042
58.24	132.495
58.46	8.325
58.68	3.297
58.9	5.113
59.12	2.477
59.34	7.756
59.56	2.221
59.78	17.474
60	9.269
60.22	7.448
60.44	7.559
60.66	10.721
60.88	7.855
61.1	5.775
61.32	12.606
61.54	6.356
61.76	6.227
61.98	5.791
62.2	8.524
62.42	57.73
62.64	40.584
62.86	8.592
63.08	5.607
63.3	1.098
63.52	8.35
63.74	8.588
63.96	15.874
64.18	2.627
64.4	7.876
64.62	3.184
64.84	11.053
65.06	12.491
65.28	7.605
65.5	8.195
65.72	4.749
65.94	8.843
66.16	11.834
66.38	9.155
66.6	1.686
66.82	4.922
67.04	5.83
67.26	9.185
67.48	5.958
67.7	7.984
67.92	8.215
68.14	10.38
68.36	9.477
68.58	5.502
68.8	8.582
69.02	4.407
69.24	5.075
69.46	0.77
69.68	3.791
69.9	9.579
70.12	5.326
70.34	10.849
70.56	1.166
70.78	18.694
71	47.627
71.22	12.991
71.44	8.576
71.66	7.451
71.88	6.038
72.1	2.9
72.32	7.778
72.54	6.865
72.76	21.675
72.98	84.607
73.2	45.273
73.42	3.388
73.64	2.686
73.86	4.628
74.08	0.651
74.3	4.755
74.52	5.13
74.74	12.434
74.96	34.478
75.18	27.186
75.4	17.81
75.62	6.167
75.84	10.361
76.06	8.611
76.28	12.921
76.5	1.85
76.72	1.498
76.94	2.624
77.16	6.366
77.38	5.689
77.6	11.005
77.82	1.687
78.04	5.837
78.26	4.602
78.48	8.804
78.7	7.715
78.92	7.728
79.14	10.617
79.36	13.708
79.58	10.7
79.8	6.869
80.02	0.828
80.24	14.137
80.46	2.965
80.68	8.825
80.9	10.606
81.12	5.54
81.34	4.459
81.56	9.295
81.78	6.129
82	6.131
82.22	6.374
82.44	3.071
82.66	5.386
82.88	21.381
83.1	4.731
83.32	9.727
83.54	1.125
83.76	4.254
83.98	1.536
84.2	4.634
84.42	2.638
84.64	6.124
84.86	7.187
85.08	6.377
85.3	13.364
85.52	7.119
85.74	7.902
85.96	12.898
86.18	3.001
86.4	3.922
86.62	8.088
86.84	13.043
87.06	0.106
87.28	8.47
87.5	10.195
87.72	9.094
87.94	0.834
88.16	6.117
88.38	21.884
88.6	72.008
88.82	30.122
89.04	8.82
89.26	11.185
89.48	10.798
89.7	10.494
89.92	12.681
