Measurement: Powder, Xray Data XY Processed
Mineral: Grossular
Rruff sample: R050312
Ideal chemistry: Ca_3_Al_2_(SiO_4_)_3_
Locality: Eden Mills mine, Vermont, USA
Source: Eugene Schlepp
Description: Red crystal
Diffraction sample description: Powder
Measured chemistry: Ca_3.00_(Al_1.75_Fe^3+^_0.23_Ti_0.02_)_Σ=2_((Si_0.99_Al_0.01_)_Σ=1_O_4_)_3_
Cell parameters: a: 11.8701(2) b: 11.8701(2) c: 11.8701(2) alpha: 90 beta: 90 gamma: 90 volume: 1672.50(8) crystal system: cubic
x	intensity
5	0
5.22	9.55963
5.44	9.83145
5.66	16.9581
5.88	1.34877
6.1	11.5267
6.32	2.04509
6.54	14.4773
6.76	10.1337
6.98	15.3049
7.2	8.56308
7.42	9.8118
7.64	14.1468
7.86	9.97857
8.08	2.26913
8.3	7.02698
8.52	2.7357
8.74	2.60545
8.96	17.1907
9.18	6.89627
9.4	7.30695
9.62	5.33714
9.84	6.42941
10.06	3.64931
10.28	2.56456
10.5	6.51953
10.72	5.45477
10.94	4.39828
11.16	10.1323
11.38	9.29744
11.6	7.10058
11.82	3.26725
12.04	15.4765
12.26	1.67928
12.48	16.8505
12.7	3.99187
12.92	6.04316
13.14	2.49661
13.36	5.82006
13.58	7.94549
13.8	4.86037
14.02	0.107908
14.24	0.609942
14.46	8.51233
14.68	22.8495
14.9	0.187245
15.12	6.98954
15.34	6.04404
15.56	6.80797
15.78	9.98646
16	2.08232
16.22	3.17624
16.44	7.60117
16.66	0.214664
16.88	1.78828
17.1	3.01099
17.32	8.36802
17.54	15.3618
17.76	8.43109
17.98	2.50998
18.2	9.22357
18.42	3.21166
18.64	2.32474
18.86	8.04524
19.08	7.03483
19.3	6.93568
19.52	6.98487
19.74	2.80969
19.96	4.63346
20.18	6.65749
20.4	0.583935
20.62	14.6147
20.84	6.67389
21.06	4.4366
21.28	3.50855
21.5	5.91958
21.72	3.80115
21.94	5.46785
22.16	4.56766
22.38	6.56174
22.6	8.52642
22.82	14.5262
23.04	5.52854
23.26	1.59265
23.48	6.75994
23.7	4.42828
23.92	11.4803
24.14	3.78456
24.36	4.87292
24.58	4.72573
24.8	6.9567
25.02	4.95092
25.24	8.8029
25.46	1.96501
25.68	11.7787
25.9	0.4638
26.12	5.6335
26.34	7.36943
26.56	3.02112
26.78	4.96926
27	13.8444
27.22	22.6509
27.44	8.94778
27.66	2.03409
27.88	3.84567
28.1	2.35264
28.32	5.26413
28.54	3.38729
28.76	12.3861
28.98	7.34477
29.2	1.75798
29.42	10.1946
29.64	5.33925
29.86	13.2419
30.08	12.6218
30.3	32.62
30.52	16.7136
30.74	10.9757
30.96	11.9545
31.18	12.0973
31.4	12.1262
31.62	6.16584
31.84	7.96436
32.06	6.68604
32.28	3.28054
32.5	6.45932
32.72	9.04412
32.94	6.95392
33.16	5.60669
33.38	8.32365
33.6	14.1068
33.82	1245.9
34.04	28.9702
34.26	0.269094
34.48	12.2331
34.7	11.2244
34.92	6.6537
35.14	1.5315
35.36	18.646
35.58	28.6219
35.8	8.6725
36.02	8.55473
36.24	5.50082
36.46	7.25423
36.68	2.85871
36.9	13.0528
37.12	87.1624
37.34	19.106
37.56	7.44589
37.78	1.61223
38	1.65394
38.22	6.87184
38.44	1.19757
38.66	38.0716
38.88	8.26128
39.1	3.74615
39.32	18.0765
39.54	6.203
39.76	11.4195
39.98	12.6736
40.2	1.1019
40.42	11.5566
40.64	8.69956
40.86	12.7004
41.08	11.2514
41.3	8.28789
41.52	13.2653
41.74	125.735
41.96	9.64914
42.18	15.6161
42.4	19.5434
42.62	12.2289
42.84	5.81275
43.06	9.71906
43.28	22.7564
43.5	3.7827
43.72	0.674854
43.94	6.50769
44.16	3.90328
44.38	21.881
44.6	4.00001
44.82	8.16535
45.04	7.10403
45.26	3.42929
45.48	6.28395
45.7	6.56904
45.92	7.33781
46.14	5.32143
46.36	1.06663
46.58	5.27528
46.8	4.6829
47.02	11.3111
47.24	254.092
47.46	17.8768
47.68	2.52582
47.9	13.4098
48.12	4.13695
48.34	6.50153
48.56	20.4724
48.78	4.46888
49	2.18109
49.22	2.03364
49.44	0.617882
49.66	5.66946
49.88	4.05702
50.1	11.1649
50.32	3.42452
50.54	10.4114
50.76	9.47709
50.98	10.6088
51.2	8.69872
51.42	8.91732
51.64	9.86712
51.86	2.074
52.08	11.266
52.3	4.10996
52.52	0.831526
52.74	0.841617
52.96	7.23771
53.18	5.18872
53.4	16.5571
53.62	35.7993
53.84	15.9555
54.06	7.0401
54.28	0.552833
54.5	14.2452
54.72	10.0155
54.94	4.77628
55.16	1.46664
55.38	7.08824
55.6	8.14674
55.82	55.7302
56.04	274.153
56.26	14.5644
56.48	2.17182
56.7	11.1644
56.92	6.09798
57.14	5.09472
57.36	11.1337
57.58	16.1415
57.8	7.3663
58.02	24.3984
58.24	80.4203
58.46	15.7237
58.68	5.12501
58.9	0.229272
59.12	0.125699
59.34	12.1124
59.56	11.3724
59.78	5.93131
60	15.1266
60.22	6.28553
60.44	1.80158
60.66	17.3742
60.88	0.702938
61.1	4.80429
61.32	10.4343
61.54	12.3046
61.76	5.09217
61.98	5.33412
62.2	1.02398
62.42	0.882657
62.64	137.679
62.86	18.3893
63.08	2.1544
63.3	3.51355
63.52	9.45213
63.74	11.5108
63.96	9.57845
64.18	1.23461
64.4	4.55209
64.62	7.51532
64.84	11.6686
65.06	2.86453
65.28	10.9641
65.5	7.67176
65.72	0.36445
65.94	11.6961
66.16	9.65077
66.38	5.71167
66.6	3.76826
66.82	7.73149
67.04	9.85326
67.26	10.1574
67.48	4.28223
67.7	5.79961
67.92	5.89256
68.14	6.19545
68.36	9.16603
68.58	7.30538
68.8	2.64425
69.02	6.54378
69.24	5.58646
69.46	8.61844
69.68	1.41992
69.9	4.86348
70.12	7.6349
70.34	4.45425
70.56	1.30684
70.78	9.3811
71	42.1965
71.22	48.6607
71.44	6.84094
71.66	5.68146
71.88	3.47548
72.1	1.18253
72.32	1.05869
72.54	5.88762
72.76	9.66984
72.98	23.558
73.2	19.5085
73.42	5.96622
73.64	8.59844
73.86	7.50707
74.08	20.5039
74.3	1.73727
74.52	16.8635
74.74	0.492946
74.96	8.60807
75.18	18.6627
75.4	5.64329
75.62	2.57959
75.84	10.6773
76.06	14.5234
76.28	2.68742
76.5	3.80466
76.72	3.87399
76.94	2.22581
77.16	3.04106
77.38	5.15642
77.6	12.4802
77.82	3.86364
78.04	21.9413
78.26	8.03062
78.48	2.09567
78.7	8.0252
78.92	5.77746
79.14	1.44989
79.36	2.51852
79.58	2.42344
79.8	5.74386
80.02	29.461
80.24	11.5921
80.46	3.56224
80.68	4.56018
80.9	6.64898
81.12	2.74086
81.34	6.97157
81.56	9.10396
81.78	4.0211
82	3.82152
82.22	6.5586
82.44	4.39315
82.66	9.4004
82.88	10.5221
83.1	8.6546
83.32	11.6141
83.54	10.6873
83.76	0.494496
83.98	11.4199
84.2	9.55695
84.42	9.75332
84.64	10.7775
84.86	3.79806
85.08	2.99915
85.3	1.10961
85.52	0.841218
85.74	0.949336
85.96	7.90336
86.18	7.9165
86.4	5.60229
86.62	9.52952
86.84	6.4351
87.06	11.2523
87.28	5.94869
87.5	1.66837
87.72	1.45532
87.94	10.2394
88.16	10.0682
88.38	7.03064
88.6	17.2293
88.82	43.774
89.04	70.6671
89.26	6.94349
89.48	1.45381
89.7	4.6643
89.92	6.59459
