Measurement: Powder, Xray Data XY Processed
Mineral: Grossular
Rruff sample: R040065
Ideal chemistry: Ca_3_Al_2_(SiO_4_)_3_
Locality: Feng Tien mine, Taiwan
Source: University of Arizona Mineral Museum
Description: Orange-brown trapezohedral crystals
Diffraction sample description: Powder
Measured chemistry: (Ca_2.90_Fe^2+^_0.05_Mn_0.05_)_Σ=3_(Al_1.95_Fe^3+^_0.03_Ti_0.02_)_Σ=2_((Si_0.99_Al_0.01_)_Σ=1_O_4_)_3_
Cell parameters: a: 11.8517(2) b: 11.8517(2) c: 11.8517(2) alpha: 90. beta: 90. gamma: 90. volume: 1664.75(8) crystal system: cubic
x	intensity
5	0
5.22	19.634
5.44	3.129
5.66	10.969
5.88	18.713
6.1	8.931
6.32	10.254
6.54	12.179
6.76	4.331
6.98	9.824
7.2	21.391
7.42	20.699
7.64	4.467
7.86	10.284
8.08	3.354
8.3	0.664
8.52	10.92
8.74	16.67
8.96	11.418
9.18	8.803
9.4	6.189
9.62	4.255
9.84	1.719
10.06	4.234
10.28	7.039
10.5	5.966
10.72	4.89
10.94	5.092
11.16	3.019
11.38	6.745
11.6	0.166
11.82	11.627
12.04	6.745
12.26	7.737
12.48	10.19
12.7	5.485
12.92	10.68
13.14	11.217
13.36	7.507
13.58	3.609
13.8	7.881
14.02	8.91
14.24	3.338
14.46	9.563
14.68	0.779
14.9	0.571
15.12	10.735
15.34	9.86
15.56	0.956
15.78	6.134
16	9.455
16.22	9.512
16.44	3.632
16.66	5.452
16.88	3.603
17.1	12.543
17.32	11.502
17.54	3.471
17.76	2.309
17.98	7.305
18.2	5.001
18.42	10.755
18.64	2.792
18.86	0.917
19.08	6.93
19.3	2.763
19.52	6.915
19.74	13.488
19.96	22.459
20.18	9.428
20.4	9.352
20.62	8.499
20.84	7.879
21.06	1.963
21.28	10.046
21.5	7.107
21.72	12.424
21.94	4.194
22.16	8.018
22.38	9.141
22.6	5.204
22.82	0.178
23.04	7.143
23.26	7.796
23.48	5.164
23.7	10.018
23.92	4.992
24.14	5.837
24.36	8.019
24.58	3.088
24.8	6.848
25.02	8.769
25.24	7.963
25.46	4.971
25.68	1.11
25.9	4.993
26.12	2.967
26.34	5.831
26.56	2.929
26.78	8.831
27	8.817
27.22	16.691
27.44	3.847
27.66	8.055
27.88	4.219
28.1	3.674
28.32	8.46
28.54	5.346
28.76	1.805
28.98	2.865
29.2	1.518
29.42	2.263
29.64	0.182
29.86	10.782
30.08	44.591
30.3	216.556
30.52	43.112
30.74	3.475
30.96	2.861
31.18	3.191
31.4	0.671
31.62	5.495
31.84	8.811
32.06	1.99
32.28	3.807
32.5	13.254
32.72	5.85
32.94	2.975
33.16	4.412
33.38	13.178
33.6	31.775
33.82	684.461
34.04	78.938
34.26	5.54
34.48	10.281
34.7	0.4
34.92	7.592
35.14	1.127
35.36	6.368
35.58	105.117
35.8	0.955
36.02	12.201
36.24	5.374
36.46	7.028
36.68	3.778
36.9	14.633
37.12	40.965
37.34	34.043
37.56	6.063
37.78	9.802
38	2.393
38.22	11.775
38.44	9.154
38.66	17.229
38.88	132.336
39.1	3.463
39.32	4.536
39.54	3.754
39.76	2.919
39.98	3.953
40.2	6.964
40.42	6.895
40.64	7.525
40.86	6.155
41.08	7.231
41.3	8.075
41.52	1.819
41.74	123.525
41.96	19.961
42.18	9.05
42.4	6.221
42.62	0.344
42.84	1.595
43.06	3.669
43.28	31.143
43.5	7.125
43.72	8.226
43.94	3.315
44.16	6.057
44.38	1.173
44.6	5.615
44.82	10.691
45.04	14.634
45.26	3.771
45.48	2.932
45.7	3.631
45.92	10.449
46.14	16.244
46.36	8.06
46.58	1.561
46.8	7.225
47.02	4.625
47.24	83.447
47.46	106.699
47.68	14.45
47.9	7.449
48.12	0.409
48.34	6.56
48.56	11.792
48.78	11.281
49	4.465
49.22	0.311
49.44	4.068
49.66	4.802
49.88	4.171
50.1	3.231
50.32	6.34
50.54	10.638
50.76	7.756
50.98	1.209
51.2	5.557
51.42	0.179
51.64	6.432
51.86	5.423
52.08	4.497
52.3	4.312
52.52	12.405
52.74	4.243
52.96	4.001
53.18	7.638
53.4	10.857
53.62	90.797
53.84	11.133
54.06	8.843
54.28	4.044
54.5	1.623
54.72	17.353
54.94	8.084
55.16	0.123
55.38	2.45
55.6	7.258
55.82	22.068
56.04	75.892
56.26	9.803
56.48	3.871
56.7	3.783
56.92	7.811
57.14	23.873
57.36	8.999
57.58	9.26
57.8	2.68
58.02	16.141
58.24	334.539
58.46	190.092
58.68	14.343
58.9	4.417
59.12	9.881
59.34	7.175
59.56	9.533
59.78	0.73
60	11.813
60.22	9.167
60.44	2.043
60.66	4.789
60.88	0.184
61.1	5.024
61.32	6.073
61.54	7.573
61.76	3.497
61.98	2.34
62.2	4.52
62.42	9.629
62.64	20.339
62.86	34.311
63.08	8.409
63.3	3.459
63.52	3.271
63.74	4.271
63.96	4.311
64.18	2.334
64.4	7.459
64.62	9.31
64.84	2.188
65.06	8.283
65.28	8.494
65.5	1.379
65.72	7.658
65.94	10.896
66.16	5.139
66.38	1.259
66.6	6.421
66.82	5.622
67.04	10.766
67.26	6.871
67.48	8.94
67.7	1.012
67.92	2.914
68.14	7.002
68.36	6.874
68.58	2.888
68.8	4.902
69.02	4.725
69.24	2.457
69.46	0.778
69.68	2.177
69.9	4.978
70.12	18.549
70.34	8.295
70.56	1.078
70.78	0.022
71	5.175
71.22	29.108
71.44	10.354
71.66	5.512
71.88	6.605
72.1	11.452
72.32	5.428
72.54	2.487
72.76	17.632
72.98	6.539
73.2	194.332
73.42	89.978
73.64	9.353
73.86	5.933
74.08	14.879
74.3	4.782
74.52	4.97
74.74	1.202
74.96	11.602
75.18	77.495
75.4	32.69
75.62	5.923
75.84	3.294
76.06	4.336
76.28	5.516
76.5	7.674
76.72	7.958
76.94	8.01
77.16	8.989
77.38	2.957
77.6	9.004
77.82	4.274
78.04	9.119
78.26	5.766
78.48	3.846
78.7	10.843
78.92	1.992
79.14	9.914
79.36	0.14
79.58	4.86
79.8	4.819
80.02	2.238
80.24	14.991
80.46	8.089
80.68	5.151
80.9	0.06
81.12	3.71
81.34	10.242
81.56	3.546
81.78	1.611
82	13.625
82.22	6.455
82.44	8.189
82.66	6.196
82.88	6.35
83.1	33.291
83.32	11.482
83.54	7.519
83.76	5.21
83.98	7.082
84.2	3.034
84.42	0.102
84.64	8.093
84.86	9.978
85.08	6.051
85.3	3.409
85.52	0.453
85.74	3.308
85.96	4.517
86.18	0.404
86.4	15.277
86.62	5.344
86.84	3.61
87.06	7.559
87.28	4.565
87.5	3.435
87.72	3.788
87.94	5.674
88.16	4.489
88.38	1.119
88.6	10.202
88.82	38.134
89.04	25.656
89.26	30.589
89.48	5.696
89.7	6.228
89.92	0.059
