Measurement: Powder, Xray Data XY Processed
Mineral: Marialite
Rruff sample: R060469
Ideal chemistry: Na_4_Al_3_Si_9_O_24_Cl
Locality: Mpwa-Mpwa mine, Umba Valley, near Arusha, Tanzania
Source: Michael Scott
Description: Yellow tetragonal prism with pronounced striations along the c-axis direction
Diffraction sample description: Powder
Measured chemistry: (Na_0.66_Ca_0.27_K_0.07_)_4_(Si_0.68_Al_0.32_)_12_O_24_(Cl_0.75_(CO_3_)_0.25_)
Cell parameters: a: 12.0732(2) b: 12.0732(2) c: 7.5852(2) alpha: 90. beta: 90. gamma: 90. volume: 1105.64(3) crystal system: tetragonal
x	intensity
5	0
5.22	8.41727
5.44	7.56093
5.66	4.2845
5.88	9.60892
6.1	8.20125
6.32	3.88329
6.54	1.40462
6.76	15.1821
6.98	4.05779
7.2	2.07634
7.42	1.07246
7.64	5.81995
7.86	6.89994
8.08	8.83177
8.3	4.59917
8.52	5.20398
8.74	4.55955
8.96	2.84829
9.18	4.03888
9.4	2.7838
9.62	5.87534
9.84	4.72882
10.06	5.35673
10.28	2.55224
10.5	14.6513
10.72	1.70315
10.94	3.94661
11.16	7.41131
11.38	7.69435
11.6	6.10804
11.82	7.38387
12.04	7.09862
12.26	6.1965
12.48	4.38545
12.7	4.38255
12.92	1.28985
13.14	3.14805
13.36	1.98937
13.58	4.66251
13.8	10.5928
14.02	3.3968
14.24	11.1876
14.46	4.89603
14.68	11.9851
14.9	0.854266
15.12	2.19101
15.34	4.35032
15.56	2.66459
15.78	5.78214
16	3.04386
16.22	3.18312
16.44	1.43601
16.66	9.53034
16.88	3.61837
17.1	2.67862
17.32	7.62841
17.54	6.76112
17.76	4.62111
17.98	0.642324
18.2	2.7363
18.42	3.67878
18.64	1.67688
18.86	2.77745
19.08	0.756111
19.3	4.70965
19.52	5.69455
19.74	3.52429
19.96	2.44415
20.18	0.466233
20.4	5.48522
20.62	3.50524
20.84	12.468
21.06	8.83482
21.28	2.79089
21.5	1.83488
21.72	1.90687
21.94	0.898399
22.16	3.00809
22.38	1.9866
22.6	6.88565
22.82	3.86667
23.04	6.70486
23.26	22.711
23.48	29.5962
23.7	12.4986
23.92	6.27382
24.14	9.06926
24.36	1.21575
24.58	5.60157
24.8	1.57058
25.02	9.21292
25.24	16.0471
25.46	0.169726
25.68	36.8674
25.9	55.9016
26.12	12.95
26.34	9.24158
26.56	0.537203
26.78	10.7164
27	3.09241
27.22	7.3378
27.44	2.54165
27.66	6.5933
27.88	11.3916
28.1	10.2149
28.32	0.077629
28.54	0.190819
28.76	5.55763
28.98	6.41491
29.2	194.438
29.42	7.28501
29.64	84.3324
29.86	5.66883
30.08	3.9521
30.3	2.09091
30.52	4.22775
30.74	4.45589
30.96	2.70031
31.18	0.25228
31.4	8.92752
31.62	30.9161
31.84	0.790461
32.06	2.55829
32.28	0.135831
32.5	2.9391
32.72	5.96054
32.94	70.9542
33.16	10.9091
33.38	202.947
33.6	14.246
33.82	3.15429
34.04	2.42926
34.26	9.59921
34.48	3.91264
34.7	5.08406
34.92	7.46016
35.14	6.54585
35.36	3.58242
35.58	0.619142
35.8	1.68904
36.02	4.55633
36.24	3.52561
36.46	2.36366
36.68	3.43431
36.9	0.230567
37.12	3.1513
37.34	0.027888
37.56	2.00327
37.78	6.03637
38	7.96241
38.22	1.87434
38.44	0.794174
38.66	1.77836
38.88	0.092782
39.1	2.14255
39.32	35.341
39.54	2.65203
39.76	11.5577
39.98	2.52028
40.2	4.44512
40.42	6.4637
40.64	3.48897
40.86	2.39947
41.08	12.2699
41.3	0.945725
41.52	2.49792
41.74	0.473599
41.96	0.72116
42.18	21.2769
42.4	39.1812
42.62	3.19695
42.84	7.18343
43.06	1.20486
43.28	0.50185
43.5	3.95073
43.72	0.063263
43.94	6.18006
44.16	4.06144
44.38	4.11618
44.6	4.17374
44.82	8.33338
45.04	12.391
45.26	7.56983
45.48	7.61545
45.7	4.55547
45.92	4.31657
46.14	0.216351
46.36	1.10918
46.58	2.98021
46.8	3.83807
47.02	8.63909
47.24	8.34489
47.46	19.4391
47.68	75.2781
47.9	9.17355
48.12	19.9155
48.34	5.06452
48.56	6.33656
48.78	6.48599
49	2.64618
49.22	4.77554
49.44	2.02452
49.66	1.2276
49.88	13.2505
50.1	4.34922
50.32	11.4385
50.54	1.39606
50.76	5.62423
50.98	1.44105
51.2	0.50196
51.42	3.43279
51.64	4.39105
51.86	5.29941
52.08	0.228038
52.3	28.0948
52.52	4.98013
52.74	9.90995
52.96	2.69583
53.18	4.57362
53.4	0.56874
53.62	0.577551
53.84	14.6502
54.06	2.74916
54.28	2.96305
54.5	4.08736
54.72	4.1086
54.94	5.43755
55.16	0.720308
55.38	3.75495
55.6	0.176231
55.82	5.90058
56.04	2.04145
56.26	0.022813
56.48	3.95619
56.7	1.77241
56.92	2.74515
57.14	3.53414
57.36	6.39867
57.58	20.505
57.8	5.43748
58.02	8.45107
58.24	20.4208
58.46	4.29992
58.68	1.30444
58.9	2.4484
59.12	6.46519
59.34	9.44153
59.56	17.4985
59.78	0.775997
60	4.69376
60.22	0.715861
60.44	1.54677
60.66	8.5671
60.88	0.350595
61.1	6.65104
61.32	17.6051
61.54	14.6449
61.76	6.5023
61.98	5.48931
62.2	0.125378
62.42	2.97641
62.64	4.96243
62.86	9.94345
63.08	5.17755
63.3	8.29768
63.52	24.3196
63.74	16.404
63.96	10.317
64.18	5.46041
64.4	0.594873
64.62	0.331096
64.84	0.239175
65.06	1.27879
65.28	4.26447
65.5	12.8804
65.72	6.56137
65.94	12.434
66.16	4.258
66.38	3.93605
66.6	1.72091
66.82	5.52173
67.04	0.603592
67.26	5.48504
67.48	5.34136
67.7	4.1665
67.92	6.12453
68.14	4.36161
68.36	1.45245
68.58	0.388801
68.8	31.4756
69.02	10.6052
69.24	5.96427
69.46	1.07433
69.68	15.9771
69.9	11.0884
70.12	8.42616
70.34	2.51008
70.56	0.376533
70.78	3.33593
71	10.5186
71.22	1.29763
71.44	11.9098
71.66	9.88665
71.88	5.02815
72.1	2.37533
72.32	0.28974
72.54	4.10039
72.76	3.0815
72.98	0.072486
73.2	1.93523
73.42	10.8555
73.64	8.70092
73.86	5.64159
74.08	4.36597
74.3	2.32348
74.52	5.03816
74.74	5.01934
74.96	4.15923
75.18	12.3305
75.4	6.36681
75.62	7.57058
75.84	9.61432
76.06	0.313608
76.28	0.827929
76.5	2.09073
76.72	7.18776
76.94	9.33106
77.16	8.71131
77.38	2.72002
77.6	1.29777
77.82	4.77113
78.04	3.68081
78.26	4.74945
78.48	0.714359
78.7	7.57947
78.92	9.45397
79.14	1.42224
79.36	1.35599
79.58	18.3526
79.8	11.2972
80.02	3.19261
80.24	4.19345
80.46	3.24852
80.68	0.213473
80.9	4.36615
81.12	4.40729
81.34	1.40535
81.56	5.5535
81.78	2.29842
82	2.21327
82.22	17.1503
82.44	5.08144
82.66	0.949674
82.88	3.07002
83.1	3.83845
83.32	12.7631
83.54	9.75712
83.76	0.592975
83.98	1.41729
84.2	3.36532
84.42	10.3484
84.64	4.68744
84.86	4.80142
85.08	2.66585
85.3	8.67009
85.52	6.79143
85.74	2.79628
85.96	7.71675
86.18	2.74139
86.4	3.79195
86.62	1.15324
86.84	6.01625
87.06	9.86249
87.28	9.90097
87.5	3.95071
87.72	8.07856
87.94	7.10285
88.16	4.34329
88.38	1.62855
88.6	6.8729
88.82	2.83436
89.04	14.9291
89.26	6.99808
89.48	3.19762
89.7	5.09514
89.92	6.15956
