Measurement: Powder, Xray Data XY Processed
Mineral: Marialite
Rruff sample: R070689
Ideal chemistry: Na_4_Al_3_Si_9_O_24_Cl
Locality: Itaguassu, Espirito Santo State, Brazil
Source: Michael Scott
Description: Pale yellow striated prism; bright orange-pink fluorescence under SW UV light
Diffraction sample description: Powder
Measured chemistry: (Na_2.48_Ca_1.28_K_0.24_)_Σ=4_(Si_7.91_Al_4.09_)_Σ=12_O_24_(Cl_0.81_(CO_3_)_0.19_)_Σ=1_; CO_2_ estimated by difference and charge balance
Cell parameters: a: 12.0703(2) b: 12.0703(2) c: 7.5873(2) alpha: 90 beta: 90 gamma: 90 volume: 1105.42(4) crystal system: tetragonal
x	intensity
5	0
5.22	17.7794
5.44	1.12598
5.66	4.04315
5.88	16.8944
6.1	1.51065
6.32	11.6745
6.54	6.50283
6.76	23.2248
6.98	7.99219
7.2	14.674
7.42	16.4342
7.64	6.35791
7.86	6.14603
8.08	9.18473
8.3	17.1303
8.52	12.1486
8.74	9.12909
8.96	6.28153
9.18	9.38585
9.4	9.81208
9.62	7.6525
9.84	12.4973
10.06	17.1279
10.28	21.4412
10.5	21.7799
10.72	17.2189
10.94	9.46972
11.16	4.07744
11.38	10.18
11.6	3.00578
11.82	13.3766
12.04	18.9509
12.26	11.2187
12.48	22.4454
12.7	15.8349
12.92	11.847
13.14	16.733
13.36	5.44961
13.58	14.0759
13.8	110.018
14.02	25.4243
14.24	21.8477
14.46	21.2398
14.68	196.299
14.9	17.588
15.12	10.8037
15.34	8.32427
15.56	6.59058
15.78	4.49421
16	1.35598
16.22	14.8688
16.44	24.6178
16.66	5.41378
16.88	15.8218
17.1	18.3759
17.32	8.64637
17.54	8.25019
17.76	21.6353
17.98	20.9826
18.2	23.1761
18.42	14.7016
18.64	7.92185
18.86	18.6427
19.08	15.0747
19.3	12.9642
19.52	17.7431
19.74	3.70485
19.96	19.904
20.18	52.3666
20.4	20.6003
20.62	13.1248
20.84	33.7846
21.06	20.6735
21.28	19.1859
21.5	7.82174
21.72	1.01977
21.94	9.34925
22.16	9.76504
22.38	11.1548
22.6	10.095
22.82	22.2088
23.04	17.333
23.26	272.485
23.48	18.6252
23.7	7.77904
23.92	15.7591
24.14	6.22804
24.36	7.10556
24.58	6.07887
24.8	13.4535
25.02	262.579
25.24	19.7275
25.46	19.2334
25.68	1384.89
25.9	30.2388
26.12	16.851
26.34	14.1485
26.56	27.1536
26.78	10.5261
27	5.30904
27.22	18.8459
27.44	18.2651
27.66	14.4905
27.88	0.494026
28.1	6.97696
28.32	11.0102
28.54	8.51691
28.76	11.9161
28.98	24.6309
29.2	294.272
29.42	19.2678
29.64	194.273
29.86	5.90406
30.08	33.2072
30.3	12.5562
30.52	21.9496
30.74	1.61444
30.96	12.9467
31.18	6.66682
31.4	45.1621
31.62	19.6338
31.84	13.607
32.06	15.5131
32.28	3.36157
32.5	11.8858
32.72	33.6259
32.94	19.8621
33.16	102.655
33.38	60.583
33.6	7.79995
33.82	10.0397
34.04	21.2783
34.26	12.566
34.48	11.9591
34.7	2.00083
34.92	12.9387
35.14	8.5932
35.36	14.9303
35.58	17.4408
35.8	15.135
36.02	11.0717
36.24	10.4292
36.46	6.68756
36.68	25.1654
36.9	2.02738
37.12	11.6351
37.34	18.0347
37.56	13.1313
37.78	24.1986
38	25.0116
38.22	11.9156
38.44	9.7518
38.66	11.7499
38.88	16.995
39.1	37.75
39.32	10.8232
39.54	19.6551
39.76	4.99629
39.98	9.43455
40.2	0.181393
40.42	16.3113
40.64	14.0712
40.86	19.5793
41.08	14.6842
41.3	2.33293
41.52	20.2326
41.74	12.212
41.96	25.7149
42.18	64.1378
42.4	4.4192
42.62	9.03245
42.84	5.55907
43.06	15.2259
43.28	11.1792
43.5	12.051
43.72	4.31126
43.94	9.93868
44.16	16.263
44.38	17.8744
44.6	17.7157
44.82	19.356
45.04	18.0408
45.26	17.0861
45.48	10.1604
45.7	6.56898
45.92	3.28899
46.14	2.93961
46.36	18.2295
46.58	3.48248
46.8	9.15081
47.02	12.2519
47.24	11.4032
47.46	121.514
47.68	28.6703
47.9	135.061
48.12	25.7279
48.34	5.87788
48.56	0.657204
48.78	5.17846
49	6.99088
49.22	1.52089
49.44	1.02392
49.66	8.40513
49.88	15.7624
50.1	20.0224
50.32	17.3261
50.54	11.8221
50.76	13.2044
50.98	3.78323
51.2	3.59503
51.42	6.64266
51.64	10.6425
51.86	13.6152
52.08	1.22389
52.3	0.782677
52.52	19.6968
52.74	1.54406
52.96	2.48764
53.18	1.51369
53.4	2.65536
53.62	32.7981
53.84	14.338
54.06	10.7507
54.28	11.2193
54.5	12.2751
54.72	2.28966
54.94	5.51942
55.16	5.16036
55.38	2.72659
55.6	10.9708
55.82	8.38023
56.04	6.5074
56.26	2.77037
56.48	8.0872
56.7	7.2342
56.92	8.72247
57.14	0.901505
57.36	13.0544
57.58	4.50429
57.8	3.66524
58.02	6.84585
58.24	6.57091
58.46	4.68996
58.68	13.0138
58.9	6.44254
59.12	47.2961
59.34	12.3309
59.56	6.30683
59.78	12.5592
60	8.72717
60.22	9.86187
60.44	3.9557
60.66	8.51336
60.88	11.4131
61.1	9.01717
61.32	29.2899
61.54	12.0319
61.76	4.90031
61.98	4.92095
62.2	2.28735
62.42	8.57938
62.64	8.52747
62.86	12.6856
63.08	11.375
63.3	12.5377
63.52	11.3395
63.74	19.6381
63.96	3.9086
64.18	1.89936
64.4	15.9756
64.62	19.0347
64.84	3.07307
65.06	7.55567
65.28	1.62418
65.5	15.176
65.72	32.2477
65.94	8.70805
66.16	0.082985
66.38	10.7898
66.6	2.69292
66.82	7.66293
67.04	4.03207
67.26	7.95583
67.48	29.1205
67.7	13.1146
67.92	30.3362
68.14	8.14875
68.36	7.14961
68.58	3.85668
68.8	7.8846
69.02	5.97333
69.24	9.66777
69.46	0.679276
69.68	10.3533
69.9	4.26586
70.12	7.4062
70.34	10.3774
70.56	8.23258
70.78	0.33833
71	8.83333
71.22	2.14954
71.44	16.6618
71.66	18.2507
71.88	10.8218
72.1	2.6587
72.32	5.92242
72.54	5.01395
72.76	3.04371
72.98	2.27364
73.2	7.16913
73.42	19.1315
73.64	8.7909
73.86	10.7342
74.08	11.6646
74.3	6.46044
74.52	8.4643
74.74	7.55352
74.96	14.89
75.18	12.011
75.4	7.14791
75.62	11.2411
75.84	12.5613
76.06	3.46331
76.28	0.561417
76.5	2.6662
76.72	8.62587
76.94	5.64459
77.16	4.63019
77.38	6.38441
77.6	2.51145
77.82	10.2703
78.04	4.22311
78.26	2.04366
78.48	8.98801
78.7	0.159983
78.92	2.17561
79.14	9.02577
79.36	8.97707
79.58	4.71389
79.8	6.71835
80.02	11.5192
80.24	4.73024
80.46	6.68297
80.68	1.95324
80.9	9.28997
81.12	0.152609
81.34	6.25984
81.56	14.5696
81.78	8.66972
82	12.7751
82.22	3.8416
82.44	8.86726
82.66	8.83747
82.88	10.8918
83.1	8.08853
83.32	4.00037
83.54	9.09449
83.76	1.98507
83.98	0.201831
84.2	7.11365
84.42	5.09556
84.64	0.728977
84.86	17.4509
85.08	10.3729
85.3	10.0808
85.52	0.181685
85.74	6.76461
85.96	4.9753
86.18	8.06432
86.4	10.1568
86.62	8.92077
86.84	3.26566
87.06	0.79408
87.28	16.0427
87.5	5.13988
87.72	9.27671
87.94	5.75747
88.16	10.8832
88.38	8.82713
88.6	2.75825
88.82	7.82167
89.04	3.2309
89.26	15.0482
89.48	6.3432
89.7	2.80483
89.92	2.06573
