Measurement: Powder, Xray Data XY Processed
Mineral: Marialite
Rruff sample: R040113
Ideal chemistry: Na_4_Al_3_Si_9_O_24_Cl
Locality: Gouverneur, New York, USA
Source: University of Arizona Mineral Museum
Description: Green prismatic crystal
Diffraction sample description: Powder
Measured chemistry: (Na_0.50_Ca_0.43_K_0.07_)_4_(Si_0.64_Al_0.36_)_12_O_24_(Cl_0.60_(CO_3_)_0.40_)
Cell parameters: a: 12.1082(4) b: 12.1082(4) c: 7.5787(2) alpha: 90. beta: 90. gamma: 90. volume: 1111.12(6) crystal system: tetragonal
x	intensity
5	0
5.22	9.79807
5.44	11.8679
5.66	17.1094
5.88	10.6446
6.1	20.3481
6.32	15.0289
6.54	8.07705
6.76	9.05512
6.98	12.4127
7.2	6.85924
7.42	9.1723
7.64	10.1831
7.86	13.6487
8.08	10.6234
8.3	1.5421
8.52	8.24692
8.74	7.17276
8.96	9.41849
9.18	10.9086
9.4	9.99073
9.62	7.92251
9.84	6.41734
10.06	7.6726
10.28	11.5665
10.5	7.85932
10.72	9.47653
10.94	3.97031
11.16	13.9788
11.38	6.19294
11.6	9.39107
11.82	3.40297
12.04	1.10601
12.26	3.82027
12.48	1.90985
12.7	5.96204
12.92	0.965544
13.14	2.96582
13.36	4.68076
13.58	0.318837
13.8	26.8124
14.02	0.826362
14.24	4.84432
14.46	4.6239
14.68	122.756
14.9	6.70948
15.12	7.05142
15.34	5.15682
15.56	3.02469
15.78	0.25263
16	7.39379
16.22	8.53685
16.44	1.07451
16.66	2.96086
16.88	6.05672
17.1	1.97389
17.32	1.9583
17.54	6.66479
17.76	1.50854
17.98	6.57097
18.2	2.41102
18.42	0.630244
18.64	2.41442
18.86	10.3815
19.08	5.47156
19.3	8.45368
19.52	9.57762
19.74	4.61302
19.96	2.70398
20.18	21.9116
20.4	4.01091
20.62	7.06929
20.84	19.1069
21.06	8.30605
21.28	1.19463
21.5	5.16139
21.72	0.283838
21.94	3.18323
22.16	2.87203
22.38	5.03539
22.6	6.88842
22.82	5.64273
23.04	6.7661
23.26	227.629
23.48	12.3936
23.7	6.14499
23.92	6.89511
24.14	0.546798
24.36	1.34693
24.58	3.14099
24.8	6.95708
25.02	76.6916
25.24	4.66754
25.46	5.63146
25.68	58.5486
25.9	19.501
26.12	8.9564
26.34	6.17088
26.56	7.48025
26.78	7.69405
27	1.82364
27.22	1.08511
27.44	1.13405
27.66	3.15521
27.88	4.6689
28.1	3.48219
28.32	1.78611
28.54	7.66512
28.76	3.53828
28.98	12.2248
29.2	250.291
29.42	24.6696
29.64	161.612
29.86	5.97401
30.08	5.14684
30.3	2.36764
30.52	0.564305
30.74	3.71955
30.96	5.15597
31.18	3.2919
31.4	26.5618
31.62	11.3542
31.84	2.06756
32.06	4.9825
32.28	4.71992
32.5	4.52479
32.72	75.857
32.94	4.86471
33.16	29.8152
33.38	127.55
33.6	8.61212
33.82	1.52805
34.04	3.50192
34.26	1.5725
34.48	2.98242
34.7	3.12472
34.92	9.27822
35.14	4.05858
35.36	7.37158
35.58	2.58183
35.8	4.87244
36.02	1.90815
36.24	4.07152
36.46	5.19062
36.68	0.074488
36.9	4.95204
37.12	7.1382
37.34	3.12377
37.56	1.32127
37.78	1.17639
38	9.95512
38.22	1.91012
38.44	10.0367
38.66	5.90798
38.88	2.87742
39.1	60.9889
39.32	9.21159
39.54	1.88127
39.76	9.10414
39.98	5.85855
40.2	7.93372
40.42	2.9462
40.64	2.96609
40.86	0.772719
41.08	11.7007
41.3	5.64879
41.52	1.70993
41.74	2.67794
41.96	35.5744
42.18	18.545
42.4	11.5308
42.62	4.31874
42.84	6.26121
43.06	1.29298
43.28	7.58949
43.5	6.6095
43.72	21.6368
43.94	5.38177
44.16	2.13305
44.38	4.04819
44.6	2.18242
44.82	6.31499
45.04	43.3857
45.26	12.4565
45.48	0.237549
45.7	1.7525
45.92	4.74945
46.14	10.6828
46.36	6.64583
46.58	7.59394
46.8	6.42472
47.02	3.26962
47.24	41.188
47.46	49.3028
47.68	12.0874
47.9	6.90898
48.12	24.7632
48.34	4.84657
48.56	1.91522
48.78	3.07793
49	0.811495
49.22	4.31662
49.44	8.53658
49.66	5.68058
49.88	6.88475
50.1	41.1357
50.32	1.03104
50.54	2.06268
50.76	2.16419
50.98	6.17154
51.2	0.927311
51.42	7.16632
51.64	5.14722
51.86	6.12713
52.08	12.6323
52.3	8.6044
52.52	8.44977
52.74	4.42475
52.96	6.41236
53.18	0.531115
53.4	4.83873
53.62	6.93748
53.84	3.98601
54.06	5.21906
54.28	5.42689
54.5	8.53334
54.72	11.7383
54.94	2.86887
55.16	3.83951
55.38	7.71366
55.6	6.39872
55.82	3.05285
56.04	2.03021
56.26	3.71673
56.48	2.47107
56.7	12.3298
56.92	3.24884
57.14	5.13218
57.36	13.2024
57.58	0.576459
57.8	3.9745
58.02	9.08107
58.24	0.185012
58.46	5.21005
58.68	4.37822
58.9	2.53904
59.12	21.4168
59.34	6.58757
59.56	10.6869
59.78	11.6901
60	2.50398
60.22	3.24808
60.44	1.28801
60.66	4.27903
60.88	4.55831
61.1	0.108753
61.32	10.9846
61.54	7.89645
61.76	2.54823
61.98	0.669077
62.2	2.15001
62.42	0.937031
62.64	3.75651
62.86	2.60496
63.08	5.5363
63.3	10.2751
63.52	15.8924
63.74	11.0864
63.96	12.3686
64.18	2.38289
64.4	6.40392
64.62	2.55364
64.84	0.600102
65.06	3.79564
65.28	9.81892
65.5	10.7238
65.72	6.62239
65.94	6.51324
66.16	6.31166
66.38	3.89318
66.6	10.8299
66.82	6.69365
67.04	0.545568
67.26	7.66821
67.48	10.3874
67.7	4.26387
67.92	8.30449
68.14	0.576804
68.36	2.35828
68.58	89.2602
68.8	12.3278
69.02	8.34048
69.24	3.43403
69.46	15.4389
69.68	6.63261
69.9	7.10036
70.12	3.27941
70.34	4.28071
70.56	8.16188
70.78	2.42043
71	3.21807
71.22	8.0295
71.44	6.36851
71.66	6.76818
71.88	1.98749
72.1	0.634503
72.32	3.41331
72.54	0.371924
72.76	11.2631
72.98	1.12009
73.2	2.92637
73.42	3.72675
73.64	1.46538
73.86	4.09914
74.08	0.97845
74.3	3.78031
74.52	0.784182
74.74	6.81371
74.96	9.88654
75.18	20.1039
75.4	14.2802
75.62	2.64009
75.84	2.82976
76.06	6.1626
76.28	0.771718
76.5	2.41133
76.72	3.60138
76.94	2.73457
77.16	3.81273
77.38	2.09499
77.6	0.014507
77.82	4.06793
78.04	3.86867
78.26	5.88106
78.48	1.31509
78.7	6.60833
78.92	4.51498
79.14	8.72481
79.36	1.35879
79.58	3.6083
79.8	6.41465
80.02	8.51926
80.24	0.512146
80.46	3.57162
80.68	3.38047
80.9	8.33544
81.12	3.32628
81.34	2.34289
81.56	5.55425
81.78	4.52948
82	7.44707
82.22	5.44379
82.44	2.32689
82.66	0.75195
82.88	5.2961
83.1	6.32271
83.32	6.80405
83.54	6.81867
83.76	8.79264
83.98	3.33085
84.2	9.34217
84.42	0.383297
84.64	6.49879
84.86	7.46657
85.08	24.4439
85.3	6.33546
85.52	5.23192
85.74	2.94345
85.96	8.08945
86.18	2.06959
86.4	2.19146
86.62	6.4131
86.84	7.61679
87.06	3.51684
87.28	9.60115
87.5	2.63676
87.72	2.72011
87.94	5.72087
88.16	4.80388
88.38	5.80074
88.6	0.866572
88.82	6.88142
89.04	3.61319
89.26	1.76321
89.48	5.85414
89.7	6.14404
89.92	2.77151
