Measurement: Powder, Xray Data XY Processed
Mineral: Pyrope
Rruff sample: R040159
Ideal chemistry: Mg_3_Al_2_(SiO_4_)_3_
Locality: Meronitz, Bohemia
Source: University of Arizona Mineral Museum
Description: Deep red crystal fragments
Diffraction sample description: Powder
Measured chemistry: (Mg_2.17_Fe^2+^_0.47_Ca_0.34_Mn_0.02_)_Σ=3_(Al_1.86_Cr_0.11_Ti_0.03_)_Σ=2_((Si_0.99_Al_0.01_)_Σ=1_O_4_)_3_; trace amounts of Rb?
Cell parameters: a: 11.5350(1) b: 11.5350(1) c: 11.5350(1) alpha: 90. beta: 90. gamma: 90. volume: 1534.82(5) crystal system: cubic
x	intensity
5	0
5.22	11.5549
5.44	8.20085
5.66	16.0026
5.88	6.02834
6.1	11.2672
6.32	2.01095
6.54	23.6201
6.76	17.37
6.98	7.80967
7.2	26.3871
7.42	5.5584
7.64	8.32658
7.86	17.7777
8.08	22.8044
8.3	18.9092
8.52	19.4293
8.74	20.6669
8.96	16.6538
9.18	2.70644
9.4	22.7057
9.62	23.3155
9.84	30.6527
10.06	11.3994
10.28	2.27189
10.5	10.5514
10.72	22.8379
10.94	1.55893
11.16	8.89273
11.38	9.37922
11.6	18.681
11.82	12.32
12.04	28.3051
12.26	10.3192
12.48	2.41652
12.7	2.67158
12.92	3.8289
13.14	1.32882
13.36	9.48529
13.58	24.6843
13.8	5.47865
14.02	20.1451
14.24	2.31361
14.46	1.5341
14.68	6.67479
14.9	15.3622
15.12	0.678165
15.34	17.7047
15.56	1.6699
15.78	18.421
16	4.17289
16.22	9.70236
16.44	15.0029
16.66	24.1141
16.88	15.9903
17.1	16.4607
17.32	4.94762
17.54	2.84858
17.76	9.48557
17.98	11.6095
18.2	13.0528
18.42	6.82637
18.64	14.8054
18.86	17.9193
19.08	22.2105
19.3	10.0795
19.52	24.7687
19.74	6.04108
19.96	7.13041
20.18	8.24282
20.4	17.5381
20.62	11.2244
20.84	18.5937
21.06	7.89957
21.28	9.84201
21.5	13.9477
21.72	10.5726
21.94	4.50732
22.16	11.6195
22.38	1.43587
22.6	7.72761
22.82	4.50987
23.04	1.52999
23.26	8.70382
23.48	7.96699
23.7	0.227139
23.92	13.3967
24.14	0.994236
24.36	1.86431
24.58	16.5565
24.8	14.5446
25.02	8.80652
25.24	15.3889
25.46	10.5759
25.68	16.2016
25.9	8.93567
26.12	19.0496
26.34	14.3179
26.56	11.4828
26.78	5.83838
27	9.73237
27.22	17.8506
27.44	17.1554
27.66	20.737
27.88	14.5683
28.1	10.508
28.32	8.10296
28.54	7.61079
28.76	11.2379
28.98	20.7752
29.2	6.17878
29.42	17.186
29.64	0.798538
29.86	3.40664
30.08	7.64153
30.3	9.45799
30.52	18.8454
30.74	20.0145
30.96	68.2751
31.18	39.8635
31.4	18.2967
31.62	10.6367
31.84	14.0545
32.06	11.4427
32.28	3.34245
32.5	23.4719
32.72	0.428246
32.94	15.5345
33.16	16.2211
33.38	10.6693
33.6	2.129
33.82	21.2679
34.04	10.7026
34.26	15.1736
34.48	22.2954
34.7	87.1218
34.92	220.098
35.14	8.96974
35.36	15.8625
35.58	5.13622
35.8	6.54655
36.02	1.93552
36.24	17.9675
36.46	42.605
36.68	34.7653
36.9	3.1645
37.12	9.43156
37.34	12.0006
37.56	9.15939
37.78	15.6908
38	17.7683
38.22	189.751
38.44	25.4803
38.66	6.64426
38.88	1.30386
39.1	7.71688
39.32	10.6344
39.54	19.5133
39.76	9.02866
39.98	131.939
40.2	13.9083
40.42	7.87902
40.64	26.3434
40.86	15.7353
41.08	7.3315
41.3	9.67122
41.52	8.07814
41.74	27.2792
41.96	18.3417
42.18	4.13727
42.4	9.15578
42.62	19.9496
42.84	36.8472
43.06	85.6119
43.28	15.4562
43.5	23.1865
43.72	14.3046
43.94	13.7852
44.16	7.96836
44.38	17.6323
44.6	12.7314
44.82	8.13463
45.04	11.2023
45.26	4.12901
45.48	6.07182
45.7	12.5679
45.92	14.5517
46.14	16.5748
46.36	12.703
46.58	1.47193
46.8	10.8068
47.02	26.6682
47.24	3.77078
47.46	8.36633
47.68	1.86861
47.9	6.11699
48.12	6.10577
48.34	11.1789
48.56	10.9744
48.78	131.752
49	11.4889
49.22	15.7499
49.44	15.0629
49.66	8.62931
49.88	11.2383
50.1	10.2751
50.32	4.50597
50.54	10.1696
50.76	9.42169
50.98	4.70201
51.2	1.15751
51.42	9.44571
51.64	14.3456
51.86	14.3066
52.08	25.6873
52.3	10.0075
52.52	6.66533
52.74	14.4977
52.96	6.13511
53.18	11.9096
53.4	19.1424
53.62	0.950844
53.84	1.93634
54.06	3.9778
54.28	7.27547
54.5	13.4111
54.72	8.25759
54.94	23.4918
55.16	188.426
55.38	16.5299
55.6	16.7679
55.82	5.56406
56.04	27.4624
56.26	14.4945
56.48	1.36869
56.7	0.795349
56.92	12.0946
57.14	12.1312
57.36	20.1676
57.58	149.183
57.8	92.0238
58.02	12.8916
58.24	3.02708
58.46	4.07481
58.68	12.9008
58.9	10.8627
59.12	6.88472
59.34	5.02889
59.56	12.4433
59.78	18.1621
60	357.914
60.22	71.2228
60.44	2.4847
60.66	9.62519
60.88	9.9276
61.1	15.3232
61.32	0.048683
61.54	17.843
61.76	7.02758
61.98	18.9137
62.2	16.2414
62.42	16.2289
62.64	17.1691
62.86	21.5259
63.08	3.09613
63.3	2.88754
63.52	17.8211
63.74	4.14676
63.96	9.18194
64.18	15.2423
64.4	6.14473
64.62	83.2988
64.84	21.997
65.06	0.72683
65.28	0.864521
65.5	2.44036
65.72	23.7558
65.94	7.17202
66.16	1.62299
66.38	0.922031
66.6	2.75496
66.82	10.9
67.04	16.9243
67.26	13.4182
67.48	2.8501
67.7	19.2744
67.92	4.62813
68.14	25.3536
68.36	4.38487
68.58	16.613
68.8	14.1409
69.02	17.9648
69.24	17.2501
69.46	18.4316
69.68	1.43668
69.9	11.5161
70.12	3.36419
70.34	17.949
70.56	9.93291
70.78	20.6482
71	13.4709
71.22	5.2489
71.44	8.36533
71.66	14.0488
71.88	27.587
72.1	6.45786
72.32	23.2694
72.54	2.36003
72.76	14.1039
72.98	8.99546
73.2	8.57013
73.42	80.5549
73.64	35.5923
73.86	13.4308
74.08	12.955
74.3	2.87246
74.52	1.11951
74.74	4.9948
74.96	6.81357
75.18	11.2126
75.4	13.1454
75.62	10.4273
75.84	17.6112
76.06	13.9838
76.28	11.1576
76.5	17.4974
76.72	19.4344
76.94	8.69733
77.16	1.71983
77.38	14.9216
77.6	49.958
77.82	12.6323
78.04	0.514412
78.26	18.2111
78.48	2.279
78.7	13.7931
78.92	11.1525
79.14	14.5061
79.36	18.7581
79.58	4.97857
79.8	11.7612
80.02	5.97209
80.24	17.5879
80.46	20.9274
80.68	12.6671
80.9	13.5922
81.12	8.17961
81.34	13.0318
81.56	10.5333
81.78	11.3568
82	24.3351
82.22	19.7963
82.44	5.90362
82.66	11.2707
82.88	20.9193
83.1	27.9948
83.32	17.4302
83.54	0.420795
83.76	26.7075
83.98	18.3372
84.2	8.78834
84.42	0.325253
84.64	0.673313
84.86	15.3611
85.08	11.1163
85.3	8.56197
85.52	24.7682
85.74	2.82746
85.96	14.5371
86.18	14.5463
86.4	14.445
86.62	5.95478
86.84	10.0982
87.06	18.0998
87.28	3.86617
87.5	7.97711
87.72	2.0804
87.94	10.2478
88.16	14.545
88.38	6.23978
88.6	18.6478
88.82	5.28639
89.04	19.2181
89.26	3.24791
89.48	8.57636
89.7	8.2485
89.92	33.5264
