Measurement: Powder, Xray Data XY Processed
Mineral: Pyrope
Rruff sample: R060448
Ideal chemistry: Mg_3_Al_2_(SiO_4_)_3_
Locality: India
Source: Gemological Institute of America
Description: Deep red water worn pebble, variety rhodolite
Diffraction sample description: Powder
Measured chemistry: (Mg_1.47_Fe_1.27_Ca_0.21_Mn_0.05_)_Î£=3_Al_2.00_(Si_1.00_O_4_)_3_
Cell parameters: a: 11.5268(1) b: 11.5268(1) c: 11.5268(1) alpha: 90. beta: 90. gamma: 90. volume: 1531.54(6) crystal system: cubic
x	intensity
5	0
5.22	20.12
5.44	6.815
5.66	5.654
5.88	8.398
6.1	19.167
6.32	22.22
6.54	19.432
6.76	5.152
6.98	17.082
7.2	15.055
7.42	18.671
7.64	1.409
7.86	15.881
8.08	3.252
8.3	15.836
8.52	14.219
8.74	3.814
8.96	1.26
9.18	11.239
9.4	3.183
9.62	10.997
9.84	3.042
10.06	4.464
10.28	9.098
10.5	7.072
10.72	2.859
10.94	13.16
11.16	7.503
11.38	17.333
11.6	11.199
11.82	2.95
12.04	1.951
12.26	12.149
12.48	11.831
12.7	4.971
12.92	6.398
13.14	16.44
13.36	7.22
13.58	15.355
13.8	2.694
14.02	5.915
14.24	20.081
14.46	5.793
14.68	12.556
14.9	11.03
15.12	9.23
15.34	15.524
15.56	3.424
15.78	13.714
16	0.753
16.22	7.638
16.44	1.094
16.66	4.712
16.88	1.592
17.1	7.921
17.32	12.364
17.54	0.821
17.76	9.273
17.98	3.116
18.2	8.549
18.42	3.664
18.64	2.255
18.86	2.55
19.08	5.875
19.3	4.224
19.52	24.318
19.74	2.546
19.96	12.599
20.18	15.569
20.4	2.27
20.62	11.018
20.84	7.796
21.06	19.62
21.28	3.838
21.5	10.548
21.72	10.422
21.94	0.432
22.16	16.598
22.38	13.366
22.6	11.294
22.82	4.047
23.04	29.882
23.26	6.812
23.48	2.602
23.7	14.955
23.92	1.113
24.14	14.751
24.36	0.475
24.58	14.972
24.8	9.041
25.02	31.096
25.24	8.028
25.46	6.338
25.68	10.52
25.9	14.536
26.12	7.472
26.34	8.21
26.56	16.45
26.78	3.428
27	9.623
27.22	12.451
27.44	14.209
27.66	6.24
27.88	6.987
28.1	9.93
28.32	5.93
28.54	0.849
28.76	6.602
28.98	7.586
29.2	6.497
29.42	14.249
29.64	11.343
29.86	17.426
30.08	12.077
30.3	11.005
30.52	3.721
30.74	2.63
30.96	12.103
31.18	108.001
31.4	15.929
31.62	10.947
31.84	2.028
32.06	11.306
32.28	15.282
32.5	21.36
32.72	12.389
32.94	1.884
33.16	10.981
33.38	14.352
33.6	20.985
33.82	5.726
34.04	13.279
34.26	6.956
34.48	2.378
34.7	24.983
34.92	199.745
35.14	16.977
35.36	12.118
35.58	1.224
35.8	14.264
36.02	11.8
36.24	5.298
36.46	21.469
36.68	26.45
36.9	11.118
37.12	5.542
37.34	8.319
37.56	2.226
37.78	11.424
38	5.23
38.22	0.941
38.44	46.743
38.66	7.72
38.88	2.367
39.1	1.934
39.32	3.136
39.54	1.054
39.76	1.083
39.98	43.886
40.2	8.972
40.42	15.646
40.64	6.631
40.86	12.002
41.08	5.026
41.3	13.431
41.52	21.281
41.74	0.836
41.96	3.061
42.18	2.398
42.4	16.978
42.62	24.414
42.84	6.857
43.06	73.556
43.28	9.802
43.5	18.755
43.72	15.394
43.94	12.943
44.16	8.351
44.38	1.919
44.6	15.914
44.82	9.55
45.04	6.227
45.26	3.138
45.48	9.383
45.7	5.348
45.92	7.527
46.14	12.148
46.36	2.655
46.58	3.664
46.8	10.697
47.02	23.511
47.24	0.428
47.46	0.53
47.68	12.433
47.9	3.229
48.12	17.932
48.34	7.903
48.56	21.851
48.78	109.837
49	18.664
49.22	13.451
49.44	10.737
49.66	4.106
49.88	16.365
50.1	21.505
50.32	5.943
50.54	10.479
50.76	5.467
50.98	20.328
51.2	2.14
51.42	13.903
51.64	10.774
51.86	13.741
52.08	8.273
52.3	24.009
52.52	17.837
52.74	13.582
52.96	23.552
53.18	7.066
53.4	20.118
53.62	8.036
53.84	16.175
54.06	9.42
54.28	8.086
54.5	13.772
54.72	5.831
54.94	5.743
55.16	6.693
55.38	11.556
55.6	9.365
55.82	9.786
56.04	0.383
56.26	26.869
56.48	20.565
56.7	16.676
56.92	9.689
57.14	12.663
57.36	14.456
57.58	18.973
57.8	38.629
58.02	13.69
58.24	1.161
58.46	7.102
58.68	9.655
58.9	23.374
59.12	3.859
59.34	26.906
59.56	25.101
59.78	13.436
60	14.823
60.22	37.004
60.44	23.675
60.66	17.899
60.88	5.22
61.1	26.555
61.32	16.685
61.54	9.077
61.76	1.876
61.98	15.227
62.2	16.054
62.42	21.675
62.64	8.508
62.86	13.369
63.08	10.413
63.3	7.613
63.52	20.032
63.74	9.971
63.96	9.648
64.18	26.337
64.4	5.547
64.62	10.537
64.84	10.397
65.06	18.789
65.28	13.403
65.5	13.164
65.72	7.753
65.94	12.294
66.16	2.289
66.38	4.683
66.6	10.552
66.82	21.328
67.04	3.137
67.26	24.087
67.48	6.323
67.7	7.654
67.92	22.312
68.14	23.393
68.36	15.51
68.58	5.258
68.8	18.701
69.02	6.579
69.24	20.821
69.46	6.035
69.68	13.49
69.9	20.124
70.12	16.703
70.34	15.018
70.56	24.894
70.78	21.731
71	10.545
71.22	18.436
71.44	15.084
71.66	7.407
71.88	18.3
72.1	5.63
72.32	12.192
72.54	2.175
72.76	9.972
72.98	5.777
73.2	11.497
73.42	2.79
73.64	3.651
73.86	1.818
74.08	4.11
74.3	2.042
74.52	11.085
74.74	16.317
74.96	10.538
75.18	20.825
75.4	22.629
75.62	62.679
75.84	44.645
76.06	16.151
76.28	16.869
76.5	3.268
76.72	19.852
76.94	20.486
77.16	9.43
77.38	15.118
77.6	11.491
77.82	16.65
78.04	0.65
78.26	14.329
78.48	9.472
78.7	10.715
78.92	12.321
79.14	5.928
79.36	15.117
79.58	6.552
79.8	10.345
80.02	15.202
80.24	21.119
80.46	18.897
80.68	2.542
80.9	21.214
81.12	3.001
81.34	16.886
81.56	20.937
81.78	3.225
82	5.343
82.22	4.33
82.44	14.478
82.66	7.736
82.88	5.624
83.1	7.132
83.32	18.321
83.54	14.517
83.76	20.512
83.98	6.315
84.2	12.466
84.42	7.671
84.64	22.913
84.86	17.001
85.08	23.227
85.3	9.166
85.52	15.644
85.74	16.417
85.96	19.006
86.18	9.814
86.4	13.541
86.62	21.347
86.84	8.994
87.06	15.773
87.28	13.734
87.5	16.848
87.72	8.032
87.94	24.107
88.16	9.253
88.38	1.575
88.6	24.822
88.82	18.058
89.04	5.373
89.26	2.084
89.48	5.019
89.7	12.668
89.92	13.709
