Measurement: Powder, Xray Data XY Processed
Mineral: Sodalite
Rruff sample: R060355
Ideal chemistry: Na_4_Si_3_Al_3_O_12_Cl
Locality: Mont Saint-Hilaire, Quebec, Canada
Source: Herb Obodda
Description: Clear colorless fragment
Diffraction sample description: Powder
Measured chemistry: (Na_0.98_[box]_0.02_)_8_Al_6.00_(Si_0.99_Al_0.01_)_6_O_24_Cl_1.82_
Cell parameters: a: 8.88510(7) b: 8.88510(7) c: 8.88510(7) alpha: 90 beta: 90 gamma: 90 volume: 701.43(2) crystal system: cubic
x	intensity
5	0
5.22	10.853
5.44	5.969
5.66	13.359
5.88	6.401
6.1	0.76
6.32	5.374
6.54	14.994
6.76	10.492
6.98	12.178
7.2	8.055
7.42	13.278
7.64	8.283
7.86	3.489
8.08	6.773
8.3	8.962
8.52	4.399
8.74	0.669
8.96	5.047
9.18	4.271
9.4	7.465
9.62	4.747
9.84	12.068
10.06	4.728
10.28	5.896
10.5	7.245
10.72	4.543
10.94	9.585
11.16	1.859
11.38	13.814
11.6	11.657
11.82	2.605
12.04	5.411
12.26	6.292
12.48	4.012
12.7	9.746
12.92	0.531
13.14	2.454
13.36	7.273
13.58	1.797
13.8	1.468
14.02	49.491
14.24	27.711
14.46	14.818
14.68	5.047
14.9	0.992
15.12	3.036
15.34	11.113
15.56	5.212
15.78	5.463
16	7.251
16.22	1.372
16.44	2.364
16.66	3.23
16.88	3.161
17.1	2.977
17.32	6.905
17.54	4.976
17.76	3.065
17.98	15.233
18.2	14.185
18.42	7.906
18.64	1.983
18.86	3.662
19.08	11.548
19.3	8.356
19.52	2.133
19.74	0.857
19.96	35.864
20.18	6.751
20.4	6.119
20.62	8.951
20.84	1.769
21.06	2.716
21.28	12.763
21.5	12.953
21.72	6.584
21.94	0.072
22.16	47.166
22.38	20.334
22.6	5.413
22.82	2.654
23.04	5.11
23.26	0.783
23.48	2.564
23.7	13.021
23.92	8.471
24.14	10.534
24.36	18.287
24.58	1118.71
24.8	47.211
25.02	17.304
25.24	10.187
25.46	7.17
25.68	0.797
25.9	4.581
26.12	0.292
26.34	4.947
26.56	0.117
26.78	7.105
27	5.4
27.22	12.425
27.44	10.3
27.66	6.887
27.88	3.222
28.1	17.215
28.32	1.873
28.54	4.538
28.76	2.008
28.98	6.427
29.2	9.677
29.42	6.79
29.64	4.079
29.86	20.253
30.08	24.257
30.3	25.016
30.52	10.926
30.74	20.86
30.96	13.058
31.18	4.65
31.4	4.445
31.62	2.468
31.84	123.382
32.06	13.096
32.28	5.249
32.5	2.111
32.72	2.33
32.94	7.622
33.16	11.097
33.38	1.306
33.6	8.183
33.82	4.85
34.04	0.501
34.26	5.202
34.48	4.175
34.7	1.87
34.92	36.814
35.14	24.732
35.36	0.077
35.58	13.812
35.8	8.883
36.02	0.036
36.24	1.382
36.46	9.857
36.68	2.941
36.9	2.793
37.12	4.87
37.34	2.994
37.56	4.839
37.78	12.104
38	178.197
38.22	7.462
38.44	7.732
38.66	6.294
38.88	2.25
39.1	5.391
39.32	1.332
39.54	8.521
39.76	5.286
39.98	7.891
40.2	4.464
40.42	6.379
40.64	20.967
40.86	7.544
41.08	1.548
41.3	7.012
41.52	4.717
41.74	7.388
41.96	1.179
42.18	5.978
42.4	4.789
42.62	2.373
42.84	9.03
43.06	12.727
43.28	156.585
43.5	12.839
43.72	6.469
43.94	13.26
44.16	3.233
44.38	3.365
44.6	14.413
44.82	14.511
45.04	13.092
45.26	14.274
45.48	11.737
45.7	31.876
45.92	0.402
46.14	0.847
46.36	5.107
46.58	5.209
46.8	8.079
47.02	2.035
47.24	10.964
47.46	4.54
47.68	11.544
47.9	0.68
48.12	26.325
48.34	3.731
48.56	2.935
48.78	8.296
49	7.76
49.22	6.311
49.44	6.703
49.66	11.122
49.88	12.462
50.1	11.753
50.32	41.176
50.54	14.435
50.76	0.852
50.98	2.497
51.2	8.319
51.42	10.23
51.64	9.113
51.86	0.19
52.08	1.782
52.3	10.524
52.52	43.669
52.74	4.226
52.96	4.217
53.18	4.296
53.4	1.749
53.62	5.363
53.84	4.479
54.06	8.553
54.28	3.614
54.5	0.925
54.72	3.822
54.94	8.027
55.16	3.688
55.38	5.737
55.6	6.728
55.82	5.731
56.04	5.658
56.26	6.683
56.48	9.722
56.7	12.579
56.92	15.169
57.14	2.026
57.36	1.423
57.58	5.186
57.8	1.151
58.02	3.661
58.24	3.837
58.46	8.922
58.68	17.728
58.9	54.736
59.12	2.653
59.34	2.373
59.56	3.423
59.78	4.532
60	9.726
60.22	4.022
60.44	7.125
60.66	10.049
60.88	17.006
61.1	10.993
61.32	7.808
61.54	2.507
61.76	12.086
61.98	7.081
62.2	5.341
62.42	3.709
62.64	13.664
62.86	24.919
63.08	13.941
63.3	11.085
63.52	8.237
63.74	0.33
63.96	6.648
64.18	16.97
64.4	6.103
64.62	88.929
64.84	51.532
65.06	11.644
65.28	1.418
65.5	9.495
65.72	6.375
65.94	7.386
66.16	6.599
66.38	5.563
66.6	8.617
66.82	8.72
67.04	5.841
67.26	4.826
67.48	4.658
67.7	5.857
67.92	6.844
68.14	1.837
68.36	18.004
68.58	35.719
68.8	6.613
69.02	0.582
69.24	5.073
69.46	2.95
69.68	8.051
69.9	4.248
70.12	7.968
70.34	15.938
70.56	6.754
70.78	12.812
71	9.668
71.22	0.425
71.44	0.873
71.66	2.897
71.88	6.03
72.1	21.871
72.32	14.73
72.54	2.979
72.76	0.15
72.98	2.283
73.2	2.296
73.42	4.801
73.64	4.122
73.86	31.175
74.08	25.391
74.3	4.634
74.52	1.192
74.74	6.793
74.96	6.843
75.18	1.776
75.4	7.853
75.62	6.96
75.84	0.556
76.06	4.319
76.28	9.045
76.5	4.939
76.72	0.223
76.94	11.707
77.16	7.621
77.38	7.884
77.6	10.867
77.82	4.856
78.04	2.638
78.26	2.646
78.48	4.667
78.7	6.725
78.92	2.923
79.14	43.961
79.36	13.125
79.58	4.19
79.8	10.799
80.02	7.674
80.24	5.678
80.46	6.678
80.68	7.669
80.9	10.638
81.12	8.061
81.34	7.017
81.56	5.871
81.78	9.699
82	4.803
82.22	0.131
82.44	0.002
82.66	17.081
82.88	9.243
83.1	9.333
83.32	7.249
83.54	4.829
83.76	2.174
83.98	13.3
84.2	0.394
84.42	12.361
84.64	4.532
84.86	2.515
85.08	9.359
85.3	5.358
85.52	10.422
85.74	2.407
85.96	12.57
86.18	25.323
86.4	31.399
86.62	7.342
86.84	4.305
87.06	1.008
87.28	3.042
87.5	5.085
87.72	4.085
87.94	0.022
88.16	4.167
88.38	4.95
88.6	4.864
88.82	8.753
89.04	2.805
89.26	8.897
89.48	5.045
89.7	3.847
89.92	6.082
