Measurement: Powder, Xray Data XY Processed
Mineral: Spessartine
Rruff sample: R060451
Ideal chemistry: Mn^2+^_3_Al_2_(SiO_4_)_3_
Locality: unknown
Source: Gemological Institute of America
Description: Reddish orange fragment
Diffraction sample description: Powder
Measured chemistry: (Mn_1.26_Mg_0.98_Fe^2+^_0.39_Ca_0.37_)_Î£=3_Al_2.00_(Si_1.00_O_4_)_3_; trace amounts of Ti
Cell parameters: a: 11.5892(1) b: 11.5892(1) c: 11.5892(1) alpha: 90. beta: 90. gamma: 90. volume: 1556.52(4) crystal system: cubic
x	intensity
5	0
5.22	19.467
5.44	3.071
5.66	3.743
5.88	5.463
6.1	15.104
6.32	9.36
6.54	10.736
6.76	13.937
6.98	8.714
7.2	13.034
7.42	17.715
7.64	7.582
7.86	0.971
8.08	2.185
8.3	5.696
8.52	12.185
8.74	8.184
8.96	3.981
9.18	10.873
9.4	12.34
9.62	4.214
9.84	2.853
10.06	5.579
10.28	10.683
10.5	11.947
10.72	10.155
10.94	11.851
11.16	10.257
11.38	15.036
11.6	5.09
11.82	11.174
12.04	7.185
12.26	17.213
12.48	16.019
12.7	9.22
12.92	4.108
13.14	11.205
13.36	7.752
13.58	16.009
13.8	6.422
14.02	4.492
14.24	18.744
14.46	12.807
14.68	13.326
14.9	23.05
15.12	3.117
15.34	13.373
15.56	9.385
15.78	17.75
16	11.799
16.22	6.961
16.44	3.348
16.66	10.376
16.88	0.485
17.1	11.569
17.32	6.554
17.54	14.864
17.76	7.11
17.98	2.322
18.2	10.207
18.42	18.397
18.64	0.555
18.86	24.185
19.08	8.551
19.3	8.679
19.52	2.72
19.74	0.456
19.96	8.338
20.18	8.841
20.4	6.944
20.62	8.415
20.84	7.38
21.06	5.301
21.28	20.331
21.5	22.079
21.72	8.185
21.94	2.953
22.16	13.244
22.38	0.482
22.6	15.178
22.82	0.038
23.04	18.143
23.26	9.188
23.48	12.365
23.7	1.511
23.92	17.885
24.14	9.739
24.36	5.095
24.58	13.724
24.8	6.723
25.02	3.425
25.24	6.652
25.46	3.509
25.68	11.549
25.9	0.854
26.12	7.06
26.34	7.685
26.56	13.518
26.78	7.477
27	14.324
27.22	4.88
27.44	17.054
27.66	4.018
27.88	1.076
28.1	8.91
28.32	4.114
28.54	2.874
28.76	6.141
28.98	14.643
29.2	5.571
29.42	6.518
29.64	6.454
29.86	5.297
30.08	9.83
30.3	1.524
30.52	27.954
30.74	4.681
30.96	100.534
31.18	17.371
31.4	7.664
31.62	7.09
31.84	12.626
32.06	14.636
32.28	7.62
32.5	0.5
32.72	24.392
32.94	21.004
33.16	11.924
33.38	12.561
33.6	4.357
33.82	4.899
34.04	11.341
34.26	3.84
34.48	7.29
34.7	164.545
34.92	27.091
35.14	13.268
35.36	7.803
35.58	3.959
35.8	4.952
36.02	5.966
36.24	12.977
36.46	28.432
36.68	8.436
36.9	9.419
37.12	5.776
37.34	6.579
37.56	3.638
37.78	15.629
38	11.579
38.22	29.688
38.44	24.415
38.66	12.556
38.88	1.806
39.1	6.496
39.32	6.773
39.54	0.507
39.76	51.743
39.98	7.984
40.2	2.896
40.42	6.305
40.64	12.245
40.86	1.559
41.08	1.591
41.3	24.031
41.52	0.932
41.74	6.752
41.96	5.112
42.18	12.587
42.4	12.354
42.62	10.479
42.84	30.566
43.06	10.752
43.28	1.775
43.5	14.42
43.72	4.888
43.94	6.078
44.16	12.178
44.38	13.394
44.6	6.533
44.82	13.139
45.04	7.936
45.26	9.63
45.48	11.757
45.7	5.774
45.92	2.547
46.14	9.19
46.36	2.568
46.58	17.905
46.8	16.126
47.02	17.55
47.24	14.239
47.46	10.323
47.68	4.31
47.9	10.256
48.12	4.592
48.34	7.421
48.56	63.25
48.78	2.767
49	23.493
49.22	0.25
49.44	11.937
49.66	5.864
49.88	18.836
50.1	13.333
50.32	5.732
50.54	9.412
50.76	14.256
50.98	4.241
51.2	6.772
51.42	5.859
51.64	7.877
51.86	9.023
52.08	8.003
52.3	14.22
52.52	13.513
52.74	19.535
52.96	0.122
53.18	15.09
53.4	17.95
53.62	15.328
53.84	19.228
54.06	8.041
54.28	15.847
54.5	12.833
54.72	19.684
54.94	32.75
55.16	8.796
55.38	23.626
55.6	4.003
55.82	19.084
56.04	2.996
56.26	19.852
56.48	11.711
56.7	0.578
56.92	0.644
57.14	2.766
57.36	169.197
57.58	24.036
57.8	2.357
58.02	8.607
58.24	10.357
58.46	17.28
58.68	19.245
58.9	0.781
59.12	3.341
59.34	19.269
59.56	10.958
59.78	47.54
60	21.638
60.22	8.35
60.44	3.517
60.66	10.124
60.88	8.682
61.1	18.784
61.32	4.195
61.54	5.129
61.76	12.019
61.98	0.036
62.2	0.408
62.42	3.444
62.64	9.327
62.86	17.291
63.08	0.283
63.3	18.251
63.52	8.378
63.74	13.069
63.96	1.481
64.18	16.576
64.4	15.613
64.62	15.572
64.84	11.14
65.06	9.595
65.28	7.819
65.5	10.111
65.72	15.198
65.94	3.239
66.16	4.314
66.38	10.107
66.6	0.381
66.82	2.409
67.04	20.671
67.26	16.657
67.48	9.485
67.7	10.244
67.92	12.138
68.14	17.181
68.36	4.38
68.58	9.022
68.8	9.09
69.02	11.948
69.24	15.852
69.46	4.938
69.68	9.03
69.9	2.273
70.12	7.292
70.34	4.968
70.56	5.823
70.78	8.675
71	14.919
71.22	12.716
71.44	4.594
71.66	17.019
71.88	12.948
72.1	7.775
72.32	18.878
72.54	6.44
72.76	4.542
72.98	20.873
73.2	19.778
73.42	26.009
73.64	26.004
73.86	5.439
74.08	14.278
74.3	5.257
74.52	18.214
74.74	11.509
74.96	7.636
75.18	37.628
75.4	19.501
75.62	2.493
75.84	2.374
76.06	15.257
76.28	3.788
76.5	2.925
76.72	5.211
76.94	2.59
77.16	23.155
77.38	6.155
77.6	3.736
77.82	5.506
78.04	10.284
78.26	18.66
78.48	15.14
78.7	10.289
78.92	18.37
79.14	16.511
79.36	16.22
79.58	2.143
79.8	11.538
80.02	20.559
80.24	9.691
80.46	0.376
80.68	13.388
80.9	12.29
81.12	13.291
81.34	13.177
81.56	12.714
81.78	6.444
82	25.526
82.22	14.463
82.44	17.998
82.66	11.7
82.88	10.634
83.1	4.846
83.32	1.518
83.54	19.67
83.76	6.554
83.98	16.276
84.2	1.524
84.42	4.272
84.64	4.669
84.86	15.638
85.08	18.614
85.3	0.644
85.52	0.323
85.74	21.479
85.96	10.428
86.18	1.97
86.4	16.203
86.62	9.271
86.84	14.505
87.06	5.525
87.28	13.469
87.5	10.593
87.72	13.497
87.94	17.608
88.16	2.327
88.38	26.852
88.6	9.759
88.82	13.914
89.04	6.781
89.26	14.326
89.48	17.951
89.7	11.421
89.92	14.861
