Measurement: Powder, Xray Data XY Processed
Mineral: Spessartine
Rruff sample: R060177
Ideal chemistry: Mn^2+^_3_Al_2_(SiO_4_)_3_
Locality: Fujian Province, China
Source: Rock Currier
Description: Orange trapezohedral crystals
Diffraction sample description: Powder
Measured chemistry: (Mn_2.86_Fe^2+^_0.10_Ca_0.04_)_Î£=3_Al_2.00_(Si_1.00_O_4_)_3_
Cell parameters: a: 11.6505(3) b: 11.6505(3) c: 11.6505(3) alpha: 90 beta: 90 gamma: 90 volume: 1581.4(0) crystal system: cubic
x	intensity
5	0
5.22	6.946
5.44	5.393
5.66	6.038
5.88	7.886
6.1	3.013
6.32	9.733
6.54	11.352
6.76	9.682
6.98	12.468
7.2	16.857
7.42	7.383
7.64	17.95
7.86	21.095
8.08	31.234
8.3	11.903
8.52	2.264
8.74	21.143
8.96	4.209
9.18	4.272
9.4	14.723
9.62	17.339
9.84	2.171
10.06	16.94
10.28	18.745
10.5	22.406
10.72	26.235
10.94	21.116
11.16	25.881
11.38	1.135
11.6	4.595
11.82	1.748
12.04	10.028
12.26	11.954
12.48	29.092
12.7	14.643
12.92	11.718
13.14	6.618
13.36	2.495
13.58	16.681
13.8	11.247
14.02	15.47
14.24	16.99
14.46	20.694
14.68	4.902
14.9	4.01
15.12	5.485
15.34	0.213
15.56	9
15.78	6.284
16	13.861
16.22	6.797
16.44	11.489
16.66	19.588
16.88	7.614
17.1	21.309
17.32	0.914
17.54	2.284
17.76	15.568
17.98	5.045
18.2	15.523
18.42	17.334
18.64	16.251
18.86	13.621
19.08	5.951
19.3	5.905
19.52	20.416
19.74	11.759
19.96	10.743
20.18	0.04
20.4	13.493
20.62	2.559
20.84	19.672
21.06	8.661
21.28	13.524
21.5	19.964
21.72	5.942
21.94	14.984
22.16	2.986
22.38	15.31
22.6	9.219
22.82	9.921
23.04	8.885
23.26	19.033
23.48	3.832
23.7	6.712
23.92	20.696
24.14	14.222
24.36	4.433
24.58	3.392
24.8	19.982
25.02	9.392
25.24	22.412
25.46	15.515
25.68	9.943
25.9	18.046
26.12	15.299
26.34	7.547
26.56	16.457
26.78	26.301
27	7.223
27.22	15.947
27.44	14.693
27.66	12.186
27.88	4.93
28.1	13.73
28.32	5.472
28.54	10.256
28.76	4.603
28.98	13.929
29.2	18.147
29.42	6.553
29.64	17.23
29.86	7.483
30.08	4.715
30.3	12.166
30.52	0.998
30.74	154.936
30.96	21.99
31.18	11.347
31.4	5.22
31.62	10.009
31.84	18.473
32.06	13.214
32.28	8.923
32.5	12.058
32.72	2.517
32.94	6.219
33.16	13.291
33.38	13.971
33.6	13.445
33.82	1.106
34.04	24.806
34.26	13.577
34.48	344.099
34.7	16.529
34.92	12.248
35.14	14.064
35.36	7.789
35.58	5.347
35.8	7.861
36.02	7.863
36.24	17.168
36.46	13.351
36.68	6.425
36.9	7.033
37.12	9.264
37.34	7.136
37.56	17.639
37.78	14.861
38	29.499
38.22	0.344
38.44	13.523
38.66	12.924
38.88	20.081
39.1	3.314
39.32	13.357
39.54	38.756
39.76	32.108
39.98	19.869
40.2	1.662
40.42	4.24
40.64	15.296
40.86	24.035
41.08	5.115
41.3	0.997
41.52	3.285
41.74	11.798
41.96	5.72
42.18	14.117
42.4	10.771
42.62	39.462
42.84	0.28
43.06	6.445
43.28	17.825
43.5	16.371
43.72	10.855
43.94	29.408
44.16	8.466
44.38	2.918
44.6	7.234
44.82	10.708
45.04	7.05
45.26	12.264
45.48	16.224
45.7	6.02
45.92	9.666
46.14	6.231
46.36	4.409
46.58	4.345
46.8	16.837
47.02	0.071
47.24	0.647
47.46	12.381
47.68	10.207
47.9	7.05
48.12	54.98
48.34	32.193
48.56	11.361
48.78	4.631
49	1.209
49.22	1.308
49.44	11.99
49.66	5.499
49.88	10.482
50.1	1.521
50.32	6.608
50.54	7.416
50.76	9.486
50.98	16.372
51.2	7.878
51.42	15.709
51.64	15.928
51.86	10.163
52.08	9.223
52.3	4.243
52.52	25.191
52.74	10.276
52.96	2.705
53.18	4.307
53.4	12.011
53.62	16.285
53.84	9.98
54.06	20.17
54.28	14.494
54.5	15.719
54.72	49.693
54.94	8.131
55.16	27.895
55.38	4.936
55.6	19.763
55.82	21.583
56.04	11.341
56.26	4.379
56.48	9.434
56.7	5.959
56.92	15.809
57.14	57.358
57.36	11.744
57.58	10.965
57.8	5.215
58.02	7.196
58.24	5.167
58.46	4.242
58.68	8.985
58.9	16.24
59.12	18.381
59.34	99.029
59.56	72.718
59.78	11.146
60	11.719
60.22	0.213
60.44	17.047
60.66	1.292
60.88	5.475
61.1	2.688
61.32	13.343
61.54	27.915
61.76	1.501
61.98	11.558
62.2	2.2
62.42	1.129
62.64	19.344
62.86	12.203
63.08	7.104
63.3	11.356
63.52	10.522
63.74	10.018
63.96	36.802
64.18	8.965
64.4	10.39
64.62	22.042
64.84	17.187
65.06	23.922
65.28	11.228
65.5	11.328
65.72	4.77
65.94	21.081
66.16	24.943
66.38	10.249
66.6	17.967
66.82	9.599
67.04	9.019
67.26	16.82
67.48	16.587
67.7	19.512
67.92	25.907
68.14	5.943
68.36	16.82
68.58	8.879
68.8	12.405
69.02	14.879
69.24	14.991
69.46	16.352
69.68	18.431
69.9	10.472
70.12	22.511
70.34	12.229
70.56	3.935
70.78	9.699
71	10.938
71.22	4.178
71.44	7.296
71.66	1.832
71.88	12.848
72.1	2.162
72.32	5.205
72.54	17.632
72.76	21.595
72.98	5.456
73.2	7.88
73.42	0.23
73.64	23.729
73.86	6.592
74.08	8.255
74.3	1.84
74.52	17.152
74.74	29.128
74.96	22.252
75.18	7.617
75.4	10.486
75.62	11.166
75.84	7.576
76.06	13.231
76.28	10.459
76.5	5.109
76.72	40.136
76.94	28.919
77.16	2.705
77.38	17.035
77.6	27.351
77.82	15.646
78.04	5.519
78.26	6.197
78.48	6.857
78.7	1.255
78.92	9.169
79.14	0.766
79.36	9.826
79.58	16.752
79.8	21.494
80.02	3.226
80.24	11.64
80.46	3.978
80.68	14.034
80.9	0.584
81.12	10.559
81.34	7.393
81.56	15.08
81.78	8.337
82	1.939
82.22	11.723
82.44	1.435
82.66	20.16
82.88	23.093
83.1	8.44
83.32	26.165
83.54	13.299
83.76	2.214
83.98	14.532
84.2	8.037
84.42	5.599
84.64	5.523
84.86	1.131
85.08	19.042
85.3	25.751
85.52	9.454
85.74	17.16
85.96	5.888
86.18	11.977
86.4	17.906
86.62	7.14
86.84	17.003
87.06	9.122
87.28	7.576
87.5	2.487
87.72	17.77
87.94	6.977
88.16	3.361
88.38	9.955
88.6	14.162
88.82	20.409
89.04	11.975
89.26	18.108
89.48	11.525
89.7	15.434
89.92	0.996
