Measurement: Powder, Xray Data XY Processed
Mineral: Sphalerite
Rruff sample: R040136
Ideal chemistry: Zn^2+^S^2-^
Locality: Hilltop mine, Paradise, Cochise County, Arizona, USA
Source: University of Arizona Mineral Museum
Description: Olive green fragments
Diffraction sample description: Powder
Measured chemistry: Zn_0.98_S
Cell parameters: a: 5.4115(2) b: 5.4115(2) c: 5.4115(2) alpha: 90. beta: 90. gamma: 90. volume: 158.47(1) crystal system: cubic
x	intensity
5	0
5.22	4.48165
5.44	8.1519
5.66	6.6817
5.88	7.65001
6.1	7.07617
6.32	16.6428
6.54	19.1189
6.76	9.16682
6.98	1.61492
7.2	8.06727
7.42	2.6702
7.64	7.31674
7.86	3.92706
8.08	3.54007
8.3	2.11758
8.52	7.75198
8.74	6.90837
8.96	2.7505
9.18	7.72349
9.4	7.61205
9.62	8.5086
9.84	10.2281
10.06	5.63658
10.28	13.8334
10.5	5.71551
10.72	2.31154
10.94	6.49313
11.16	9.59736
11.38	4.61674
11.6	2.63588
11.82	12.6718
12.04	6.53314
12.26	4.66774
12.48	4.89351
12.7	9.8106
12.92	5.08654
13.14	4.36507
13.36	13.1396
13.58	6.28436
13.8	1.50567
14.02	2.59453
14.24	6.73308
14.46	15.0295
14.68	4.01126
14.9	2.84343
15.12	3.56495
15.34	7.30251
15.56	6.5103
15.78	6.47397
16	8.37441
16.22	7.22103
16.44	4.22899
16.66	0.512425
16.88	15.1687
17.1	5.15221
17.32	4.15042
17.54	7.12418
17.76	6.33154
17.98	5.94067
18.2	0.317945
18.42	9.38941
18.64	5.4874
18.86	4.43466
19.08	3.40018
19.3	4.73346
19.52	1.95807
19.74	9.03548
19.96	8.08814
20.18	7.10338
20.4	10.1474
20.62	5.78527
20.84	4.76974
21.06	4.9315
21.28	7.9305
21.5	3.70875
21.72	3.83055
21.94	1.65036
22.16	5.63395
22.38	1.66859
22.6	8.66244
22.82	11.62
23.04	0.594357
23.26	6.72982
23.48	0.593422
23.7	4.53481
23.92	9.64931
24.14	7.43116
24.36	8.3269
24.58	1.17976
24.8	2.86911
25.02	4.69289
25.24	3.60848
25.46	4.80189
25.68	16.6613
25.9	13.0679
26.12	3.13842
26.34	0.722689
26.56	2.11528
26.78	0.196314
27	12.2725
27.22	6.16065
27.44	9.98622
27.66	5.84623
27.88	13.2239
28.1	41.5929
28.32	121.677
28.54	1310.98
28.76	419.836
28.98	94.4352
29.2	44.3603
29.42	18.5514
29.64	7.98759
29.86	10.8162
30.08	5.33875
30.3	8.76909
30.52	5.15566
30.74	9.41062
30.96	7.9626
31.18	2.04278
31.4	0.915485
31.62	13.044
31.84	13.4968
32.06	8.92551
32.28	10.5483
32.5	6.56711
32.72	13.7952
32.94	28.6303
33.16	100.123
33.38	16.3426
33.6	9.35611
33.82	2.95971
34.04	6.74316
34.26	3.40779
34.48	1.40077
34.7	1.08323
34.92	5.61601
35.14	6.00341
35.36	8.39434
35.58	9.63175
35.8	4.96501
36.02	4.95635
36.24	7.97971
36.46	4.1479
36.68	4.20081
36.9	11.1222
37.12	7.42231
37.34	5.37485
37.56	0.802321
37.78	10.834
38	4.74915
38.22	8.66833
38.44	3.96303
38.66	4.15805
38.88	8.16691
39.1	7.03596
39.32	2.08594
39.54	10.1481
39.76	4.08917
39.98	4.66939
40.2	1.57542
40.42	5.40398
40.64	5.60296
40.86	10.2414
41.08	3.07244
41.3	0.016226
41.52	4.86038
41.74	16.5799
41.96	2.2157
42.18	8.09361
42.4	8.05925
42.62	8.15122
42.84	12.2231
43.06	5.89726
43.28	2.81292
43.5	3.85517
43.72	4.94231
43.94	6.90461
44.16	3.83013
44.38	11.0296
44.6	7.83639
44.82	2.06081
45.04	0.151044
45.26	3.39428
45.48	0.162606
45.7	3.05909
45.92	1.34681
46.14	2.2997
46.36	7.84021
46.58	4.5967
46.8	10.0148
47.02	51.9118
47.24	95.529
47.46	503.075
47.68	479.303
47.9	117.806
48.12	60.6527
48.34	25.3504
48.56	12.9035
48.78	14.3465
49	1.55196
49.22	5.81021
49.44	3.82085
49.66	4.77018
49.88	9.43041
50.1	2.98355
50.32	7.96402
50.54	21.9915
50.76	0.053758
50.98	13.662
51.2	6.38311
51.42	7.72613
51.64	15.6002
51.86	7.7581
52.08	7.88778
52.3	4.07661
52.52	0.165261
52.74	6.94228
52.96	6.91785
53.18	1.1397
53.4	4.20412
53.62	0.7436
53.84	3.29973
54.06	12.3754
54.28	2.0856
54.5	7.47662
54.72	0.719006
54.94	8.71765
55.16	4.00082
55.38	14.1232
55.6	8.33867
55.82	12.8825
56.04	47.9871
56.26	173.345
56.48	296.656
56.7	99.6298
56.92	25.1181
57.14	17.4443
57.36	12.9804
57.58	11.0658
57.8	12.8548
58.02	7.49137
58.24	11.9125
58.46	5.43652
58.68	1.82026
58.9	15.8219
59.12	31.2213
59.34	23.0515
59.56	0.804361
59.78	3.25083
60	0.711825
60.22	9.58909
60.44	0.103317
60.66	10.361
60.88	2.41451
61.1	6.50838
61.32	10.4619
61.54	0.252287
61.76	3.19839
61.98	4.19249
62.2	6.16933
62.42	9.43035
62.64	4.55462
62.86	4.92245
63.08	5.77039
63.3	0.142127
63.52	0.766846
63.74	2.74431
63.96	6.97971
64.18	0.028778
64.4	6.00062
64.62	11.0741
64.84	5.92895
65.06	4.09794
65.28	0.182487
65.5	2.30268
65.72	5.31856
65.94	4.66248
66.16	2.81852
66.38	6.62608
66.6	3.40856
66.82	0.191152
67.04	0.946896
67.26	0.214467
67.48	1.18435
67.7	5.9575
67.92	5.34101
68.14	1.18605
68.36	2.79848
68.58	5.32438
68.8	0.112068
69.02	12.5939
69.24	26.2412
69.46	76.3291
69.68	48.9838
69.9	10.0847
70.12	15.0398
70.34	7.42969
70.56	8.28893
70.78	2.80109
71	1.51476
71.22	6.93208
71.44	7.5637
71.66	0.908949
71.88	6.1094
72.1	0.733421
72.32	0.825377
72.54	7.92341
72.76	8.63241
72.98	13.6505
73.2	4.82391
73.42	7.55803
73.64	10.642
73.86	6.56509
74.08	1.75311
74.3	2.28087
74.52	9.17374
74.74	3.65481
74.96	1.03329
75.18	7.31043
75.4	4.29965
75.62	7.21511
75.84	0.250742
76.06	8.21854
76.28	21.1634
76.5	33.2036
76.72	93.6303
76.94	78.4769
77.16	20.5374
77.38	2.85545
77.6	11.7562
77.82	1.21919
78.04	6.77189
78.26	11.4187
78.48	1.17643
78.7	10.1001
78.92	4.87954
79.14	12.236
79.36	16.0027
79.58	1.57427
79.8	3.85865
80.02	6.84801
80.24	6.24797
80.46	1.86033
80.68	12.1444
80.9	10.3121
81.12	5.5034
81.34	13.5674
81.56	2.34275
81.78	4.56319
82	2.6128
82.22	8.61254
82.44	4.53226
82.66	5.50381
82.88	3.37511
83.1	3.4415
83.32	0.551832
83.54	12.2122
83.76	0.243468
83.98	8.97026
84.2	3.84611
84.42	5.98137
84.64	3.06786
84.86	6.28134
85.08	3.34701
85.3	12.0475
85.52	3.02622
85.74	2.94305
85.96	5.52418
86.18	3.32213
86.4	4.00687
86.62	7.52486
86.84	3.43528
87.06	9.58125
87.28	4.52577
87.5	0.194464
87.72	0.82714
87.94	17.1799
88.16	21.626
88.38	78.5741
88.6	59.2726
88.82	48.3916
89.04	19.3698
89.26	19.8318
89.48	10.7484
89.7	14.4712
89.92	6.26654
