Measurement: Powder, Xray Data XY Processed
Mineral: Sphalerite
Rruff sample: R050005
Ideal chemistry: Zn^2+^S^2-^
Locality: Taolin mine, Yueyang, Linxing, Hunan Province, China
Source: Eugene Schlepp
Description: Reddish brown crystals
Diffraction sample description: Powder
Measured chemistry: (Zn_.997_Fe_.003_)S
Cell parameters: a: 5.4142(2) b: 5.4142(2) c: 5.4142(2) alpha: 90. beta: 90. gamma: 90. volume: 158.71(1) crystal system: cubic
x	intensity
5	0
5.22	11.367
5.44	4
5.66	6.418
5.88	10.103
6.1	34.319
6.32	19.525
6.54	9.44
6.76	10.297
6.98	2.465
7.2	5.721
7.42	1.039
7.64	6.293
7.86	2.837
8.08	2.168
8.3	6.134
8.52	3.191
8.74	8.182
8.96	0.107
9.18	6.994
9.4	5.851
9.62	6.729
9.84	4.432
10.06	6.301
10.28	12.147
10.5	6.996
10.72	10.734
10.94	4.643
11.16	0.257
11.38	5.604
11.6	3.698
11.82	5.829
12.04	11.09
12.26	5.368
12.48	13.733
12.7	0.331
12.92	4.749
13.14	0.959
13.36	15.138
13.58	5.183
13.8	3.334
14.02	8.445
14.24	1.575
14.46	3.377
14.68	1.514
14.9	6.22
15.12	1.111
15.34	9.543
15.56	5.492
15.78	6.461
16	3.337
16.22	2.415
16.44	3.622
16.66	7.383
16.88	3.495
17.1	1.646
17.32	4.619
17.54	9.588
17.76	1.913
17.98	6.188
18.2	0.859
18.42	4.102
18.64	1.019
18.86	4.163
19.08	1.12
19.3	8.071
19.52	2.908
19.74	4.098
19.96	12.136
20.18	2.155
20.4	10.161
20.62	6.368
20.84	6.388
21.06	3.389
21.28	6.323
21.5	13.257
21.72	9.247
21.94	8.175
22.16	0.987
22.38	5.951
22.6	7.862
22.82	5.832
23.04	2.846
23.26	4.003
23.48	5.846
23.7	0.77
23.92	10.838
24.14	1.886
24.36	4.843
24.58	7.723
24.8	15.439
25.02	2.51
25.24	8.735
25.46	7.474
25.68	10.024
25.9	6.216
26.12	11.207
26.34	3.727
26.56	6.859
26.78	1.209
27	6.663
27.22	4.55
27.44	4.029
27.66	6.385
27.88	18.067
28.1	30.189
28.32	82.241
28.54	1341.51
28.76	321.587
28.98	47.414
29.2	15.279
29.42	3.346
29.64	7.438
29.86	1.641
30.08	0.385
30.3	7.191
30.52	2.78
30.74	8.056
30.96	6.032
31.18	0.518
31.4	10.649
31.62	10.263
31.84	3.677
32.06	8.203
32.28	4.026
32.5	6.793
32.72	9.155
32.94	29.533
33.16	85.952
33.38	29.435
33.6	17.053
33.82	6.67
34.04	5.275
34.26	3.42
34.48	2.013
34.7	6.556
34.92	4.07
35.14	7.051
35.36	6.629
35.58	2.816
35.8	11.871
36.02	9.988
36.24	6.234
36.46	2.669
36.68	0.95
36.9	14.95
37.12	3.992
37.34	2.052
37.56	9.166
37.78	5.757
38	10.676
38.22	6.687
38.44	2.745
38.66	2.219
38.88	5.75
39.1	3.867
39.32	8.212
39.54	0.394
39.76	3.869
39.98	15.671
40.2	4.699
40.42	5.856
40.64	5.739
40.86	6.533
41.08	5.166
41.3	3.945
41.52	6.598
41.74	10.008
41.96	11.358
42.18	1.073
42.4	1.148
42.62	7.64
42.84	10.372
43.06	8.863
43.28	5.805
43.5	0.76
43.72	0.774
43.94	6
44.16	4.502
44.38	11.073
44.6	1.812
44.82	12.642
45.04	3.097
45.26	14.151
45.48	17.071
45.7	7.615
45.92	0.081
46.14	8.919
46.36	0.292
46.58	6.3
46.8	4.601
47.02	25.946
47.24	79.341
47.46	626.424
47.68	361.387
47.9	75.956
48.12	31.438
48.34	20.87
48.56	11.328
48.78	2.315
49	5.341
49.22	2.945
49.44	7.479
49.66	7.274
49.88	3.356
50.1	1.151
50.32	11.717
50.54	15.623
50.76	5.88
50.98	8.319
51.2	1.08
51.42	4.202
51.64	9.653
51.86	5.216
52.08	10.115
52.3	2.428
52.52	1.051
52.74	8.127
52.96	16.19
53.18	2.142
53.4	1.647
53.62	3.127
53.84	5.694
54.06	2.967
54.28	10.943
54.5	6.128
54.72	5.025
54.94	15.399
55.16	0.766
55.38	0.069
55.6	5.85
55.82	21.115
56.04	45.715
56.26	225.502
56.48	300.557
56.7	54.674
56.92	37.391
57.14	8.192
57.36	11.337
57.58	9.371
57.8	7.438
58.02	5.539
58.24	1.407
58.46	4.48
58.68	7.102
58.9	5.969
59.12	35.818
59.34	13.021
59.56	0.799
59.78	5.284
60	5.592
60.22	4.884
60.44	6.182
60.66	2.534
60.88	4.709
61.1	7.721
61.32	9.184
61.54	2.949
61.76	3.212
61.98	0.922
62.2	6.095
62.42	0.453
62.64	3.563
62.86	0.544
63.08	6.621
63.3	2.652
63.52	7.901
63.74	8.6
63.96	9.874
64.18	8.828
64.4	11.787
64.62	10.011
64.84	3.795
65.06	1.222
65.28	6.662
65.5	5.798
65.72	5.73
65.94	10.806
66.16	2.664
66.38	7.254
66.6	9.33
66.82	2.269
67.04	2.92
67.26	2.693
67.48	4.361
67.7	6.077
67.92	9.466
68.14	12.963
68.36	6.304
68.58	1.811
68.8	10.322
69.02	5.046
69.24	26.87
69.46	52.985
69.68	41.974
69.9	8.267
70.12	0.294
70.34	8.168
70.56	0.371
70.78	8.134
71	0.612
71.22	6.938
71.44	1.516
71.66	1.557
71.88	6.797
72.1	0.759
72.32	6.187
72.54	9.151
72.76	8.12
72.98	2.079
73.2	4.202
73.42	8.517
73.64	9.73
73.86	12.43
74.08	9.296
74.3	1.503
74.52	8.144
74.74	5.757
74.96	5.16
75.18	5.498
75.4	4.796
75.62	7.839
75.84	4.687
76.06	6.696
76.28	12.029
76.5	22.531
76.72	152.955
76.94	90.645
77.16	15.588
77.38	4.709
77.6	2.297
77.82	4.586
78.04	7.927
78.26	2.331
78.48	3.799
78.7	3.513
78.92	11.998
79.14	17.024
79.36	13.614
79.58	14.18
79.8	2.286
80.02	9.146
80.24	2.928
80.46	10.418
80.68	0.052
80.9	5.317
81.12	1.747
81.34	4.972
81.56	5.07
81.78	7.919
82	10.812
82.22	2.653
82.44	6.424
82.66	2.114
82.88	3.057
83.1	8.924
83.32	7.945
83.54	6.591
83.76	4.527
83.98	6.598
84.2	3.676
84.42	5.113
84.64	11.079
84.86	7.125
85.08	4.463
85.3	7.348
85.52	2.169
85.74	3.486
85.96	9.246
86.18	0.989
86.4	13.406
86.62	5.818
86.84	6.767
87.06	3.005
87.28	1.077
87.5	9.03
87.72	6.418
87.94	9.228
88.16	33.765
88.38	99.668
88.6	40.668
88.82	26.189
89.04	8.216
89.26	5.916
89.48	15.039
89.7	7.993
89.92	0.497
