Measurement: Powder, Xray Data XY Processed
Mineral: Sphalerite
Rruff sample: R050237
Ideal chemistry: Zn^2+^S^2-^
Locality: Picos de Europa, Spain
Source: Marcus Origlieri
Description: Green single crystal
Diffraction sample description: Powder
Measured chemistry: Zn_1.00_S_1.00_
Cell parameters: a: 5.4099(2) b: 5.4099(2) c: 5.4099(2) alpha: 90 beta: 90 gamma: 90 volume: 158.33(2) crystal system: cubic
x	intensity
5	0
5.22	10.1502
5.44	9.4981
5.66	15.8867
5.88	10.5777
6.1	22.9429
6.32	26.9715
6.54	12.8504
6.76	18.0546
6.98	6.36367
7.2	7.83997
7.42	0.141089
7.64	1.48249
7.86	1.8784
8.08	2.33218
8.3	6.34393
8.52	1.37501
8.74	4.2499
8.96	6.96628
9.18	1.15608
9.4	5.56416
9.62	8.16438
9.84	4.00314
10.06	7.73533
10.28	1.46348
10.5	16.2746
10.72	3.36525
10.94	3.2513
11.16	0.684108
11.38	7.43142
11.6	9.72504
11.82	7.93948
12.04	6.25895
12.26	9.84477
12.48	4.0954
12.7	6.5743
12.92	3.73931
13.14	7.65674
13.36	3.08885
13.58	4.09044
13.8	5.24819
14.02	4.23116
14.24	2.33092
14.46	5.46396
14.68	5.74282
14.9	3.77578
15.12	12.5355
15.34	7.77901
15.56	4.73794
15.78	5.68316
16	4.59723
16.22	11.5057
16.44	1.59169
16.66	8.48732
16.88	7.22427
17.1	6.76166
17.32	5.65637
17.54	5.36798
17.76	8.12186
17.98	2.11074
18.2	17.1766
18.42	3.47599
18.64	4.38632
18.86	6.53646
19.08	15.7128
19.3	7.71106
19.52	7.71632
19.74	1.85604
19.96	10.0397
20.18	8.20674
20.4	2.26693
20.62	3.25617
20.84	1.99299
21.06	7.10779
21.28	5.03807
21.5	4.19207
21.72	5.10431
21.94	6.20428
22.16	1.86033
22.38	6.18037
22.6	4.02201
22.82	3.02717
23.04	2.91834
23.26	10.2163
23.48	5.0038
23.7	2.82836
23.92	6.50023
24.14	0.799243
24.36	2.68412
24.58	3.4546
24.8	4.18133
25.02	5.40464
25.24	1.56131
25.46	7.99524
25.68	7.40378
25.9	11.8548
26.12	8.69755
26.34	11.5288
26.56	3.71171
26.78	0.060383
27	15.1236
27.22	8.18869
27.44	7.97655
27.66	13.6901
27.88	4.25693
28.1	26.7618
28.32	64.8507
28.54	885.582
28.76	356.969
28.98	50.9184
29.2	23.0999
29.42	4.33848
29.64	12.4003
29.86	3.37695
30.08	2.9579
30.3	4.64616
30.52	5.96535
30.74	7.2259
30.96	4.51286
31.18	12.9351
31.4	12.9068
31.62	2.88523
31.84	13.9939
32.06	2.38714
32.28	14.0111
32.5	12.2555
32.72	3.1279
32.94	26.5691
33.16	153.728
33.38	22.1187
33.6	7.38216
33.82	9.94159
34.04	1.45523
34.26	8.31022
34.48	0.736176
34.7	0.142474
34.92	0.713426
35.14	10.5517
35.36	12.4993
35.58	2.4652
35.8	8.37054
36.02	11.623
36.24	5.62872
36.46	2.74073
36.68	6.80788
36.9	5.00692
37.12	6.16357
37.34	3.35382
37.56	9.00652
37.78	3.42394
38	9.60065
38.22	2.96649
38.44	7.96439
38.66	10.998
38.88	1.5695
39.1	8.47436
39.32	4.52905
39.54	1.33727
39.76	9.24674
39.98	1.64286
40.2	3.24272
40.42	5.97077
40.64	3.78116
40.86	9.54843
41.08	1.6537
41.3	2.70425
41.52	2.65213
41.74	1.31617
41.96	2.37387
42.18	5.18867
42.4	4.06498
42.62	15.9611
42.84	7.85049
43.06	1.27901
43.28	8.68224
43.5	5.78862
43.72	4.71324
43.94	13.8298
44.16	9.61605
44.38	11.4658
44.6	7.7426
44.82	7.2226
45.04	6.76754
45.26	4.07056
45.48	4.88198
45.7	12.4128
45.92	4.47145
46.14	6.60314
46.36	4.42506
46.58	1.1023
46.8	4.1322
47.02	15.6354
47.24	63.7138
47.46	407.829
47.68	841.859
47.9	80.3388
48.12	42.5487
48.34	25.6874
48.56	19.055
48.78	0.024868
49	9.65874
49.22	9.98565
49.44	6.34427
49.66	8.47535
49.88	2.44957
50.1	4.00607
50.32	3.23564
50.54	25.392
50.76	12.6384
50.98	5.50518
51.2	7.24044
51.42	3.48395
51.64	7.11317
51.86	2.52066
52.08	12.9429
52.3	10.3306
52.52	11.7346
52.74	2.19243
52.96	12.9559
53.18	9.96174
53.4	1.46074
53.62	3.56019
53.84	8.22259
54.06	5.31008
54.28	2.53851
54.5	4.73638
54.72	0.725149
54.94	0.523438
55.16	2.49242
55.38	11.4818
55.6	6.47869
55.82	15.4397
56.04	35.7531
56.26	122.372
56.48	300.654
56.7	78.2193
56.92	23.6655
57.14	9.80304
57.36	9.55256
57.58	3.61384
57.8	3.35718
58.02	1.4313
58.24	1.54529
58.46	9.46169
58.68	12.5133
58.9	9.03908
59.12	29.2431
59.34	19.2915
59.56	8.51423
59.78	8.99973
60	4.02419
60.22	1.37353
60.44	3.68282
60.66	3.11841
60.88	1.78266
61.1	1.27922
61.32	6.28937
61.54	1.55935
61.76	2.8286
61.98	2.86545
62.2	10.9562
62.42	4.03583
62.64	7.12553
62.86	14.1153
63.08	4.20762
63.3	7.1197
63.52	5.09506
63.74	3.02877
63.96	5.99919
64.18	4.87573
64.4	4.77319
64.62	5.70906
64.84	0.675505
65.06	5.53192
65.28	2.78653
65.5	10.5977
65.72	0.697725
65.94	0.838513
66.16	6.94742
66.38	8.03095
66.6	3.932
66.82	4.0279
67.04	2.93649
67.26	3.29935
67.48	8.70526
67.7	7.26586
67.92	0.785685
68.14	5.0115
68.36	4.50803
68.58	2.17367
68.8	4.31843
69.02	2.97682
69.24	7.52303
69.46	86.4967
69.68	58.7848
69.9	18.7107
70.12	6.07649
70.34	5.83516
70.56	5.59325
70.78	2.0545
71	3.54851
71.22	0.94569
71.44	5.56123
71.66	10.0444
71.88	8.36046
72.1	5.63148
72.32	3.92804
72.54	2.75026
72.76	10.381
72.98	1.21382
73.2	7.19487
73.42	3.16866
73.64	0.916624
73.86	0.749707
74.08	5.39648
74.3	1.10421
74.52	1.40099
74.74	3.91329
74.96	8.54215
75.18	3.9874
75.4	4.25453
75.62	6.67372
75.84	7.06487
76.06	6.65519
76.28	8.1475
76.5	13.762
76.72	129.033
76.94	66.0721
77.16	25.9144
77.38	11.1897
77.6	3.44871
77.82	9.77203
78.04	9.03149
78.26	9.27921
78.48	1.57545
78.7	4.95509
78.92	6.45006
79.14	39.5105
79.36	17.4854
79.58	9.87664
79.8	4.99515
80.02	5.46937
80.24	5.92965
80.46	8.31436
80.68	9.75691
80.9	5.17174
81.12	6.42996
81.34	2.47186
81.56	6.64745
81.78	5.87832
82	0.253915
82.22	3.06744
82.44	2.05219
82.66	5.77652
82.88	5.67805
83.1	9.67552
83.32	7.51532
83.54	12.512
83.76	0.398328
83.98	8.38654
84.2	8.31093
84.42	2.91135
84.64	8.11458
84.86	4.3082
85.08	8.35539
85.3	7.68818
85.52	3.50594
85.74	4.57934
85.96	7.12463
86.18	4.83678
86.4	5.25313
86.62	4.69941
86.84	3.26086
87.06	0.403221
87.28	7.55117
87.5	2.68135
87.72	3.92514
87.94	11.252
88.16	13.7929
88.38	65.522
88.6	82.6707
88.82	77.8543
89.04	6.79724
89.26	13.2661
89.48	0.982985
89.7	6.15585
89.92	3.16302
