Measurement: Powder, Xray Data XY Processed
Mineral: Sphalerite
Rruff sample: R060005
Ideal chemistry: Zn^2+^S^2-^
Locality: Trinacria mine, Lake Poopo, Oruro, Bolivia
Source: University of Arizona Mineral Museum
Description: Steel gray crystal associated with franckeite R050431
Diffraction sample description: Powder
Measured chemistry: Zn_0.82_Fe_0.18_S
Cell parameters: a: 5.42132(7) b: 5.42132(7) c: 5.42132(7) alpha: 90 beta: 90 gamma: 90 volume: 159.336(6) crystal system: cubic
x	intensity
5	0
5.22	7.78882
5.44	13.0164
5.66	13.1571
5.88	5.67609
6.1	23.7564
6.32	5.81907
6.54	25.626
6.76	5.89344
6.98	4.2411
7.2	4.77204
7.42	9.53299
7.64	10.0758
7.86	12.9322
8.08	5.51891
8.3	7.72371
8.52	12.5237
8.74	11.2157
8.96	14.9771
9.18	5.49783
9.4	4.8131
9.62	12.8801
9.84	10.4328
10.06	23.6876
10.28	14.1706
10.5	12.2545
10.72	8.96773
10.94	19.176
11.16	2.49407
11.38	8.65684
11.6	12.682
11.82	7.79386
12.04	14.379
12.26	11.7348
12.48	7.31668
12.7	12.2648
12.92	4.56494
13.14	9.92663
13.36	7.25517
13.58	2.11329
13.8	5.06332
14.02	11.1586
14.24	4.20855
14.46	6.07669
14.68	10.2409
14.9	4.92755
15.12	5.93825
15.34	6.81264
15.56	1.12322
15.78	19.6941
16	8.60424
16.22	6.59695
16.44	7.50967
16.66	27.5687
16.88	8.08888
17.1	6.97573
17.32	7.72068
17.54	12.5768
17.76	15.5325
17.98	7.22936
18.2	7.11779
18.42	5.35616
18.64	6.35746
18.86	17.205
19.08	14.8099
19.3	11.9119
19.52	11.6665
19.74	6.49732
19.96	14.421
20.18	15.1738
20.4	2.12069
20.62	1.53904
20.84	5.03145
21.06	6.6959
21.28	13.7177
21.5	10.6411
21.72	17.2893
21.94	8.26885
22.16	12.2809
22.38	15.1273
22.6	5.1767
22.82	6.78489
23.04	24.5438
23.26	1.53364
23.48	11.3211
23.7	12.1695
23.92	12.0171
24.14	7.90081
24.36	10.0379
24.58	10.641
24.8	0.674908
25.02	5.68731
25.24	8.68081
25.46	9.9818
25.68	20.6457
25.9	37.1505
26.12	11.5777
26.34	3.71696
26.56	15.9522
26.78	2.38952
27	12.5302
27.22	6.46447
27.44	11.408
27.66	19.128
27.88	30.5861
28.1	32.9571
28.32	76.6181
28.54	1320.34
28.76	89.4812
28.98	33.7177
29.2	9.28025
29.42	16.1508
29.64	2.1066
29.86	6.06657
30.08	10.4108
30.3	4.56682
30.52	5.94041
30.74	11.9914
30.96	0.670328
31.18	7.74914
31.4	6.35928
31.62	11.0154
31.84	10.9738
32.06	5.1739
32.28	11.5571
32.5	12.2326
32.72	15.3229
32.94	38.8156
33.16	52.2203
33.38	7.55442
33.6	5.23646
33.82	3.51678
34.04	5.26629
34.26	23.8003
34.48	4.37491
34.7	9.87167
34.92	16.2816
35.14	9.03215
35.36	16.2621
35.58	17.2878
35.8	15.8513
36.02	8.40832
36.24	8.16533
36.46	11.103
36.68	10.3603
36.9	8.49019
37.12	1.76909
37.34	7.58353
37.56	12.7592
37.78	3.68423
38	5.93815
38.22	0.706161
38.44	1.46663
38.66	2.49155
38.88	15.0987
39.1	9.00771
39.32	8.8913
39.54	12.675
39.76	12.8585
39.98	17.9156
40.2	10.1772
40.42	11.9891
40.64	8.98603
40.86	16.8516
41.08	6.8812
41.3	8.16066
41.52	7.87427
41.74	17.6915
41.96	9.59194
42.18	3.57894
42.4	15.1609
42.62	20.706
42.84	0.363031
43.06	3.05915
43.28	11.7842
43.5	10.459
43.72	11.4289
43.94	24.8374
44.16	9.1548
44.38	16.8878
44.6	11.046
44.82	3.49433
45.04	9.0224
45.26	8.01115
45.48	2.14876
45.7	9.28957
45.92	1.12741
46.14	0.794662
46.36	0.135139
46.58	7.71555
46.8	13.6832
47.02	21.2149
47.24	89.7222
47.46	452.68
47.68	92.536
47.9	18.0929
48.12	17.0421
48.34	9.84998
48.56	5.1109
48.78	15.9812
49	9.77138
49.22	15.5486
49.44	12.2771
49.66	20.0616
49.88	17.7269
50.1	4.27427
50.32	13.9594
50.54	12.3631
50.76	5.31612
50.98	22.4515
51.2	20.9573
51.42	12.404
51.64	9.26716
51.86	3.71491
52.08	20.0015
52.3	3.01737
52.52	7.30965
52.74	14.6578
52.96	13.2323
53.18	4.57095
53.4	11.1537
53.62	2.79904
53.84	3.42518
54.06	10.7745
54.28	6.14148
54.5	1.0572
54.72	9.25098
54.94	7.29315
55.16	11.6922
55.38	0.884182
55.6	13.6657
55.82	32.4026
56.04	38.5688
56.26	203.377
56.48	88.0676
56.7	14.043
56.92	12.1504
57.14	4.16754
57.36	2.10026
57.58	13.1083
57.8	12.8363
58.02	3.41763
58.24	8.97455
58.46	11.3749
58.68	15.6053
58.9	13.2671
59.12	12.9537
59.34	4.92253
59.56	15.0221
59.78	19.8327
60	2.64585
60.22	2.94582
60.44	0.148645
60.66	3.36165
60.88	2.42212
61.1	4.75471
61.32	9.74414
61.54	2.82998
61.76	4.03921
61.98	0.985796
62.2	8.28317
62.42	16.5755
62.64	6.73824
62.86	11.1651
63.08	3.48224
63.3	11.0898
63.52	3.58793
63.74	11.1105
63.96	9.87106
64.18	8.58202
64.4	18.5844
64.62	11.3262
64.84	5.01623
65.06	6.95804
65.28	23.5849
65.5	6.20295
65.72	13.3464
65.94	13.2801
66.16	10.4635
66.38	19.6933
66.6	0.934301
66.82	10.661
67.04	8.52231
67.26	19.3391
67.48	4.91706
67.7	7.68426
67.92	8.12495
68.14	6.67608
68.36	7.01402
68.58	8.80202
68.8	12.2602
69.02	3.99118
69.24	43.4291
69.46	36.7636
69.68	7.99617
69.9	16.4472
70.12	16.5149
70.34	1.11034
70.56	13.4147
70.78	6.84357
71	0.151697
71.22	9.35465
71.44	3.5149
71.66	7.21019
71.88	1.96994
72.1	2.43082
72.32	4.15956
72.54	6.20041
72.76	12.5472
72.98	6.461
73.2	8.59187
73.42	13.749
73.64	15.059
73.86	15.2992
74.08	15.296
74.3	6.25971
74.52	17.5497
74.74	16.4039
74.96	7.90627
75.18	3.88656
75.4	12.2405
75.62	16.2981
75.84	8.51883
76.06	9.50491
76.28	15.9049
76.5	47.8848
76.72	50.196
76.94	32.3994
77.16	0.599514
77.38	15.8948
77.6	7.98195
77.82	13.5648
78.04	5.33777
78.26	15.2499
78.48	4.69381
78.7	4.0632
78.92	11.3825
79.14	6.57308
79.36	21.7419
79.58	2.75291
79.8	5.60719
80.02	14.9727
80.24	3.13733
80.46	3.96149
80.68	25.4683
80.9	11.321
81.12	2.50972
81.34	14.4122
81.56	1.75954
81.78	5.84098
82	0.034946
82.22	19.1658
82.44	2.25714
82.66	16.747
82.88	29.108
83.1	9.27346
83.32	7.53994
83.54	5.67374
83.76	7.46952
83.98	11.4064
84.2	5.35041
84.42	6.27543
84.64	11.2976
84.86	16.8027
85.08	9.90461
85.3	5.27848
85.52	4.68746
85.74	11.6764
85.96	29.0496
86.18	19.688
86.4	0.291422
86.62	3.75935
86.84	3.99533
87.06	15.3324
87.28	15.5057
87.5	13.2936
87.72	4.42836
87.94	9.68558
88.16	45.3317
88.38	19.8872
88.6	31.3172
88.82	13.8171
89.04	16.4544
89.26	2.57277
89.48	2.07145
89.7	10.1845
89.92	8.25754
