Measurement: Powder, Xray Data XY Processed
Mineral: Spinel
Rruff sample: R050259
Ideal chemistry: MgAl_2_O_4_
Locality: Mogok, Burma
Source: Marcus Origlieri
Description: Purple cut gemstone
Diffraction sample description: Powder
Measured chemistry: (Mg_0.99_Zn_0.01_)_Σ=1_(Al_1.98_Fe^3+^_0.02_)_Σ=2_O_4_; trace amounts of Cr
Cell parameters: a: 8.0889(2) b: 8.0889(2) c: 8.0889(2) alpha: 90 beta: 90 gamma: 90 volume: 529.26(4) crystal system: cubic
x	intensity
5	0
5.22	7.46109
5.44	7.11668
5.66	0.687963
5.88	8.34387
6.1	6.41382
6.32	14.7751
6.54	0.083401
6.76	0.622471
6.98	10.8436
7.2	2.18247
7.42	7.35612
7.64	3.79979
7.86	10.1086
8.08	17.3331
8.3	9.76646
8.52	15.3636
8.74	0.298333
8.96	1.1995
9.18	5.03425
9.4	12.6231
9.62	0.173483
9.84	6.63081
10.06	4.29689
10.28	6.73815
10.5	12.0298
10.72	5.26254
10.94	10.3628
11.16	4.78096
11.38	8.6408
11.6	12.1052
11.82	12.2905
12.04	12.9767
12.26	12.4403
12.48	2.2172
12.7	0.016888
12.92	4.80108
13.14	7.67136
13.36	0.581623
13.58	4.22164
13.8	9.29436
14.02	2.61974
14.24	12.5311
14.46	6.03364
14.68	8.28165
14.9	3.63749
15.12	1.83987
15.34	8.39633
15.56	1.21738
15.78	5.9389
16	0.946996
16.22	1.23912
16.44	3.26833
16.66	8.19478
16.88	6.04755
17.1	13.9826
17.32	7.88724
17.54	1.50789
17.76	0.480244
17.98	3.23578
18.2	4.1579
18.42	1.14651
18.64	0.365252
18.86	15.1026
19.08	307.294
19.3	17.4913
19.52	9.83169
19.74	3.9861
19.96	7.36969
20.18	1.83279
20.4	7.19104
20.62	5.53864
20.84	14.5121
21.06	2.77844
21.28	5.88494
21.5	2.99467
21.72	3.04115
21.94	9.06013
22.16	9.07292
22.38	7.86176
22.6	7.81613
22.82	9.71444
23.04	0.403829
23.26	0.591766
23.48	2.3664
23.7	6.62542
23.92	1.46527
24.14	2.21625
24.36	0.220103
24.58	5.1574
24.8	3.01354
25.02	2.7557
25.24	3.21977
25.46	4.25518
25.68	10.3051
25.9	8.30903
26.12	8.59158
26.34	4.89545
26.56	8.24968
26.78	9.38602
27	11.5524
27.22	11.6985
27.44	6.74066
27.66	4.60192
27.88	3.59524
28.1	9.70515
28.32	3.39864
28.54	0.834289
28.76	2.78343
28.98	7.31463
29.2	2.21224
29.42	5.97146
29.64	0.801567
29.86	0.414559
30.08	2.23056
30.3	11.0491
30.52	9.75552
30.74	9.49308
30.96	4.70056
31.18	36.5416
31.4	551.298
31.62	10.2985
31.84	7.68241
32.06	0.743279
32.28	7.99902
32.5	0.572402
32.72	5.76421
32.94	7.9296
33.16	16.8629
33.38	13.5122
33.6	1.5213
33.82	6.5276
34.04	9.27197
34.26	1.99838
34.48	4.03539
34.7	4.60397
34.92	2.36978
35.14	1.9408
35.36	14.4868
35.58	0.965099
35.8	11.6368
36.02	1.18981
36.24	5.61722
36.46	6.37934
36.68	38.22
36.9	940.914
37.12	36.3731
37.34	4.04513
37.56	7.26292
37.78	9.68737
38	5.11257
38.22	1.39308
38.44	3.22751
38.66	19.8551
38.88	4.36124
39.1	5.75019
39.32	5.99957
39.54	4.94429
39.76	3.10846
39.98	14.5141
40.2	4.59065
40.42	2.63098
40.64	6.65579
40.86	17.4869
41.08	10.458
41.3	4.07254
41.52	4.02034
41.74	7.95378
41.96	3.97675
42.18	7.82015
42.4	7.28456
42.62	11.0666
42.84	9.91422
43.06	5.4554
43.28	6.1681
43.5	11.619
43.72	4.34399
43.94	4.0211
44.16	8.59955
44.38	5.23013
44.6	14.3198
44.82	743.581
45.04	66.9329
45.26	8.05102
45.48	6.31093
45.7	4.64009
45.92	0.167705
46.14	5.53367
46.36	7.85326
46.58	2.20612
46.8	4.80384
47.02	3.99244
47.24	7.25369
47.46	6.02782
47.68	5.16266
47.9	8.18315
48.12	2.21014
48.34	6.14461
48.56	2.26791
48.78	7.47492
49	3.39953
49.22	8.02494
49.44	10.0929
49.66	1.79739
49.88	2.14255
50.1	4.06004
50.32	4.14917
50.54	2.29659
50.76	2.47116
50.98	11.3541
51.2	5.28048
51.42	3.31257
51.64	11.5788
51.86	7.49126
52.08	7.4199
52.3	5.48308
52.52	2.40507
52.74	15.4626
52.96	10.7784
53.18	15.6539
53.4	4.92641
53.62	5.09988
53.84	1.16206
54.06	1.8208
54.28	7.23861
54.5	4.28462
54.72	13.1561
54.94	6.1265
55.16	4.48297
55.38	7.42375
55.6	20.3186
55.82	71.0365
56.04	6.95565
56.26	4.72835
56.48	9.47948
56.7	9.31052
56.92	0.796267
57.14	4.16585
57.36	3.17819
57.58	12.5378
57.8	3.99399
58.02	4.73275
58.24	1.39474
58.46	3.99865
58.68	7.75642
58.9	4.64627
59.12	13.7997
59.34	439.69
59.56	239.747
59.78	11.8562
60	8.31201
60.22	6.52321
60.44	4.27028
60.66	3.73988
60.88	4.29838
61.1	7.83645
61.32	6.15771
61.54	3.63433
61.76	9.8576
61.98	6.67271
62.2	5.71175
62.42	2.58694
62.64	0.438308
62.86	6.67314
63.08	9.42716
63.3	5.01587
63.52	4.73706
63.74	3.41158
63.96	7.64586
64.18	1.31259
64.4	8.89408
64.62	12.5707
64.84	10.4353
65.06	24.2893
65.28	314.892
65.5	51.8407
65.72	9.03141
65.94	3.33441
66.16	1.62873
66.38	4.75269
66.6	1.24648
66.82	6.57094
67.04	1.24923
67.26	3.68194
67.48	5.65256
67.7	3.48448
67.92	4.60811
68.14	11.8598
68.36	5.65956
68.58	18.7209
68.8	23.0247
69.02	0.062245
69.24	5.19906
69.46	1.93884
69.68	7.17254
69.9	6.45685
70.12	5.7253
70.34	0.850821
70.56	9.60531
70.78	4.61531
71	2.71925
71.22	8.63624
71.44	5.81723
71.66	4.63116
71.88	7.10592
72.1	8.15393
72.32	3.31208
72.54	5.28159
72.76	4.34643
72.98	1.3294
73.2	11.2824
73.42	8.18213
73.64	8.40254
73.86	3.34707
74.08	27.2727
74.3	21.3306
74.52	4.27481
74.74	9.01159
74.96	4.01124
75.18	5.15689
75.4	2.58717
75.62	9.05242
75.84	3.20952
76.06	0.957968
76.28	5.76886
76.5	3.22844
76.72	5.60813
76.94	8.62764
77.16	17.5785
77.38	47.5424
77.6	26.2491
77.82	2.87853
78.04	7.85411
78.26	3.81317
78.48	8.00716
78.7	2.58623
78.92	4.72936
79.14	0.894352
79.36	1.99538
79.58	4.16196
79.8	0.374586
80.02	5.65963
80.24	10.7538
80.46	0.285885
80.68	5.74678
80.9	3.22883
81.12	11.1529
81.34	10.1541
81.56	8.04659
81.78	6.88291
82	0.824288
82.22	0.215042
82.44	4.53962
82.66	36.3569
82.88	39.2807
83.1	6.42216
83.32	1.5289
83.54	5.50772
83.76	2.6762
83.98	4.80358
84.2	5.07163
84.42	11.8855
84.64	0.054922
84.86	8.94447
85.08	4.04612
85.3	2.06107
85.52	6.96876
85.74	28.0599
85.96	8.13637
86.18	6.10517
86.4	0.271087
86.62	0.242263
86.84	10.4252
87.06	1.59644
87.28	12.7212
87.5	7.82393
87.72	7.00031
87.94	3.07209
88.16	0.873729
88.38	5.1932
88.6	4.22602
88.82	6.00582
89.04	3.9997
89.26	4.85266
89.48	3.79886
89.7	8.58025
89.92	2.9583
