Measurement: Powder, Xray Data XY Processed
Mineral: Spinel
Rruff sample: R050184
Ideal chemistry: MgAl_2_O_4_
Locality: Pein Pyit, Mogok, Burma
Source: Marcus Origlieri
Description: Red crystal in calcite, associated with yellowish-green clinohumite, R050183
Diffraction sample description: Powder
Measured chemistry: Mg_1.00_(Al_1.99_Cr_0.01_)_Î£=2_O_4_; trace amounts of V
Cell parameters: a: 8.08978(8) b: 8.08978(8) c: 8.08978(8) alpha: 90. beta: 90. gamma: 90. volume: 529.43(2) crystal system: cubic
x	intensity
5	0
5.22	8.19076
5.44	10.1166
5.66	14.7609
5.88	15.7952
6.1	1.12846
6.32	9.93722
6.54	6.62813
6.76	2.94426
6.98	0.279958
7.2	9.22721
7.42	10.8642
7.64	4.19802
7.86	4.64976
8.08	11.1861
8.3	4.53402
8.52	12.8401
8.74	1.91801
8.96	5.27736
9.18	1.66454
9.4	2.55421
9.62	13.8316
9.84	6.96552
10.06	13.4195
10.28	14.3365
10.5	6.4391
10.72	6.01534
10.94	0.811407
11.16	3.28744
11.38	3.31709
11.6	7.40165
11.82	4.44405
12.04	4.40909
12.26	15.4945
12.48	0.279517
12.7	9.33111
12.92	11.384
13.14	6.23298
13.36	12.2976
13.58	0.536424
13.8	0.175854
14.02	10.0398
14.24	9.4043
14.46	13.5803
14.68	3.59363
14.9	0.637812
15.12	4.50645
15.34	8.54968
15.56	3.49034
15.78	1.78068
16	7.8104
16.22	7.50001
16.44	4.79309
16.66	4.58715
16.88	1.14919
17.1	9.11929
17.32	10.4255
17.54	1.32297
17.76	1.21341
17.98	2.88374
18.2	7.78859
18.42	2.6676
18.64	4.66727
18.86	31.8559
19.08	316.752
19.3	16.3484
19.52	5.74551
19.74	11.9511
19.96	2.12293
20.18	5.2537
20.4	8.39811
20.62	2.37021
20.84	3.73574
21.06	8.66924
21.28	9.5407
21.5	4.76551
21.72	10.7498
21.94	3.67442
22.16	1.68337
22.38	4.7631
22.6	10.9202
22.82	2.48063
23.04	1.57511
23.26	2.66027
23.48	8.55441
23.7	0.597035
23.92	3.43702
24.14	6.41724
24.36	2.16274
24.58	2.044
24.8	2.89939
25.02	3.88038
25.24	6.54163
25.46	3.44052
25.68	22.4685
25.9	4.59184
26.12	8.24789
26.34	2.43616
26.56	1.60052
26.78	1.93859
27	0.95881
27.22	9.10917
27.44	3.95586
27.66	3.80549
27.88	2.72753
28.1	3.5963
28.32	6.35306
28.54	0.550115
28.76	5.27784
28.98	6.49913
29.2	3.28764
29.42	15.0994
29.64	7.93228
29.86	4.79925
30.08	6.56896
30.3	1.38115
30.52	8.2871
30.74	6.19594
30.96	14.4383
31.18	83.4233
31.4	102.379
31.62	13.2998
31.84	7.65857
32.06	0.151464
32.28	3.08534
32.5	0.345013
32.72	3.19085
32.94	4.51465
33.16	33.6711
33.38	6.67788
33.6	5.90292
33.82	2.61683
34.04	7.29595
34.26	2.79302
34.48	4.47343
34.7	8.10959
34.92	6.10162
35.14	19.9898
35.36	11.978
35.58	9.0497
35.8	6.97141
36.02	3.77017
36.24	5.04659
36.46	15.5778
36.68	82.1591
36.9	733.703
37.12	57.0483
37.34	12.824
37.56	5.44655
37.78	10.188
38	3.23842
38.22	5.20359
38.44	1.80616
38.66	15.156
38.88	3.05585
39.1	1.22656
39.32	7.34
39.54	4.33194
39.76	7.41486
39.98	9.68296
40.2	11.8018
40.42	2.67166
40.64	11.6062
40.86	12.8091
41.08	7.70975
41.3	3.57578
41.52	4.97719
41.74	12.4485
41.96	1.06469
42.18	0.342628
42.4	2.07847
42.62	9.60272
42.84	0.912951
43.06	4.40966
43.28	10.5488
43.5	23.7811
43.72	6.8564
43.94	0.988817
44.16	7.05363
44.38	27.7957
44.6	58.8107
44.82	745.284
45.04	63.9596
45.26	11.5409
45.48	5.17708
45.7	3.89858
45.92	2.27397
46.14	6.43974
46.36	1.94251
46.58	8.57597
46.8	0.177851
47.02	8.5317
47.24	9.124
47.46	3.1311
47.68	10.8478
47.9	2.0521
48.12	2.085
48.34	1.0347
48.56	2.10907
48.78	4.16235
49	4.3969
49.22	2.39436
49.44	2.79147
49.66	3.00988
49.88	6.46318
50.1	4.9242
50.32	2.02796
50.54	5.29278
50.76	10.4617
50.98	12.7101
51.2	1.69499
51.42	1.68245
51.64	3.66787
51.86	4.62417
52.08	2.5015
52.3	4.20742
52.52	11.8967
52.74	8.83252
52.96	3.70124
53.18	11.6515
53.4	3.57005
53.62	0.623676
53.84	2.99616
54.06	6.05905
54.28	4.8407
54.5	0.882816
54.72	8.95539
54.94	0.844409
55.16	8.85281
55.38	9.73786
55.6	56.2826
55.82	44.3035
56.04	4.15742
56.26	1.65038
56.48	5.38697
56.7	2.01947
56.92	6.88364
57.14	11.3851
57.36	12.0201
57.58	5.75911
57.8	8.11163
58.02	4.08481
58.24	13.0686
58.46	4.66701
58.68	1.35327
58.9	0.185675
59.12	34.1597
59.34	524.94
59.56	111.392
59.78	20.8502
60	0.250108
60.22	8.8707
60.44	2.42014
60.66	0.082534
60.88	1.86435
61.1	1.44016
61.32	6.34442
61.54	7.6552
61.76	6.07992
61.98	4.20816
62.2	0.269082
62.42	10.0639
62.64	6.98349
62.86	4.77727
63.08	4.45576
63.3	5.80886
63.52	6.27635
63.74	6.15363
63.96	6.49285
64.18	10.769
64.4	8.88694
64.62	5.29026
64.84	20.8072
65.06	64.6776
65.28	207.632
65.5	67.7374
65.72	17.9411
65.94	10.6804
66.16	5.52007
66.38	11.9675
66.6	5.74603
66.82	7.38501
67.04	6.03911
67.26	0.491149
67.48	6.48835
67.7	1.75028
67.92	0.109589
68.14	12.309
68.36	10.1283
68.58	35.0998
68.8	20.469
69.02	2.48035
69.24	2.43354
69.46	3.71144
69.68	1.96514
69.9	6.20432
70.12	3.35897
70.34	0.46517
70.56	4.38083
70.78	1.75967
71	6.88431
71.22	3.93781
71.44	3.14515
71.66	0.233383
71.88	5.28843
72.1	7.27458
72.32	5.19559
72.54	3.15399
72.76	9.04036
72.98	3.85422
73.2	6.54054
73.42	1.29063
73.64	5.17914
73.86	5.09049
74.08	32.0208
74.3	17.8669
74.52	5.96554
74.74	5.20697
74.96	2.68596
75.18	5.72476
75.4	1.80199
75.62	7.95197
75.84	1.9649
76.06	1.34751
76.28	1.39312
76.5	1.17877
76.72	0.091564
76.94	9.68159
77.16	10.4371
77.38	31.8235
77.6	23.7001
77.82	4.75577
78.04	1.70056
78.26	10.8173
78.48	6.04497
78.7	0.647536
78.92	3.86778
79.14	9.17344
79.36	1.42746
79.58	2.68308
79.8	12.0235
80.02	7.28355
80.24	8.417
80.46	9.62717
80.68	5.69057
80.9	5.60869
81.12	3.40864
81.34	4.92493
81.56	2.24183
81.78	4.53608
82	4.25357
82.22	6.03685
82.44	9.76981
82.66	22.7512
82.88	25.9282
83.1	0.921992
83.32	2.15028
83.54	6.53185
83.76	3.82378
83.98	5.09687
84.2	8.44274
84.42	3.76921
84.64	6.91618
84.86	8.0225
85.08	4.99043
85.3	3.83292
85.52	3.82379
85.74	16.8303
85.96	16.6875
86.18	4.83805
86.4	2.77792
86.62	2.84085
86.84	0.218836
87.06	5.95112
87.28	3.05711
87.5	0.105894
87.72	10.215
87.94	3.32479
88.16	6.49564
88.38	5.59047
88.6	3.61071
88.82	4.75311
89.04	8.8719
89.26	3.95503
89.48	8.35508
89.7	4.40439
89.92	12.3065
