Measurement: Powder, Xray Data XY Processed
Mineral: Topaz
Rruff sample: R050176
Ideal chemistry: Al_2_SiO_4_F_2_
Locality: Jos Plateau, Nigeria
Source: Marcus Origlieri
Description: Colorless prismatic crystal
Diffraction sample description: Powder
Measured chemistry: Al_2.000_Si_1.000_O_4.000_(F_1.438_(OH)_0.562_)
Cell parameters: a: 4.6490(1) b: 8.7942(3) c: 8.3896(4) alpha: 90. beta: 90. gamma: 90. volume: 343.01(2) crystal system: orthorhombic
x	intensity
5	0
5.22	4.51553
5.44	13.4862
5.66	9.12438
5.88	6.64898
6.1	9.4493
6.32	6.46949
6.54	16.1137
6.76	15.0202
6.98	9.76381
7.2	8.58532
7.42	6.04445
7.64	10.4963
7.86	7.97768
8.08	2.46519
8.3	8.56148
8.52	1.7486
8.74	9.65376
8.96	4.81591
9.18	4.79327
9.4	12.66
9.62	2.76402
9.84	5.09056
10.06	4.2986
10.28	7.48046
10.5	9.57014
10.72	1.84183
10.94	8.06672
11.16	4.02904
11.38	6.13419
11.6	5.29632
11.82	5.53951
12.04	6.72557
12.26	7.74785
12.48	2.71749
12.7	7.72271
12.92	1.71593
13.14	10.62
13.36	8.59745
13.58	2.49947
13.8	0.556584
14.02	13.6244
14.24	8.87038
14.46	1.87088
14.68	2.04479
14.9	1.29526
15.12	0.621666
15.34	4.07903
15.56	6.38261
15.78	4.81502
16	3.09634
16.22	1.21466
16.44	4.26604
16.66	4.1076
16.88	9.10844
17.1	1.06016
17.32	4.0397
17.54	8.74977
17.76	8.77784
17.98	3.78208
18.2	0.801507
18.42	1.79825
18.64	1.79457
18.86	4.87317
19.08	0.935869
19.3	4.86978
19.52	5.99167
19.74	6.06736
19.96	1.04378
20.18	14.8179
20.4	5.68832
20.62	7.53391
20.84	3.5312
21.06	6.7387
21.28	3.68924
21.5	5.99886
21.72	8.14543
21.94	3.05653
22.16	2.89398
22.38	11.2305
22.6	2.16778
22.82	14.0453
23.04	3.81973
23.26	1.63277
23.48	1.4402
23.7	5.20307
23.92	12.6188
24.14	369.463
24.36	10.1517
24.58	6.99361
24.8	1.8142
25.02	3.92297
25.24	4.02077
25.46	3.139
25.68	6.51105
25.9	6.98076
26.12	0.281814
26.34	0.563036
26.56	32.826
26.78	0.924362
27	6.88311
27.22	4.90015
27.44	5.67083
27.66	5.48535
27.88	69.3593
28.1	20.6776
28.32	1.82944
28.54	0.152796
28.76	9.69597
28.98	1.93344
29.2	1.73545
29.42	1527.53
29.64	29.6664
29.86	11.7044
30.08	11.8886
30.3	17.1727
30.52	250.7
30.74	1.21048
30.96	2.71176
31.18	0.468238
31.4	4.19149
31.62	1.14365
31.84	11.3913
32.06	2.42472
32.28	1.7587
32.5	1.85637
32.72	1.09252
32.94	6.14926
33.16	1.29595
33.38	9.37286
33.6	6.27151
33.82	4.12005
34.04	0.116344
34.26	2.81483
34.48	8.64802
34.7	2.52421
34.92	7.40591
35.14	9.2024
35.36	7.98677
35.58	1.2899
35.8	3.37638
36.02	1.33362
36.24	106.561
36.46	7.4849
36.68	9.28595
36.9	2.12476
37.12	4.89888
37.34	5.72799
37.56	28.5187
37.78	14.3394
38	9.66081
38.22	77.6975
38.44	5.62862
38.66	4.51286
38.88	3.79983
39.1	24.8839
39.32	0.342745
39.54	0.776441
39.76	2.88894
39.98	1.99918
40.2	2.1363
40.42	5.24854
40.64	1.86087
40.86	3.66482
41.08	27.5889
41.3	3.46493
41.52	5.2804
41.74	15.7701
41.96	0.282589
42.18	8.20191
42.4	0.125635
42.62	6.99471
42.84	5.89166
43.06	102.873
43.28	4.18612
43.5	2.09355
43.72	8.93643
43.94	1.05465
44.16	43.4636
44.38	2.681
44.6	1.77579
44.82	2.91159
45.04	4.14243
45.26	0.457562
45.48	2.76908
45.7	13.649
45.92	13.7221
46.14	1.85478
46.36	2.18821
46.58	4.69247
46.8	7.89903
47.02	18.7933
47.24	2.94804
47.46	5.70716
47.68	2.28104
47.9	2.04059
48.12	1.68748
48.34	5.52909
48.56	10.3197
48.78	54.6936
49	7.58256
49.22	81.3491
49.44	5.30318
49.66	2.18337
49.88	6.31427
50.1	39.4435
50.32	0.568039
50.54	2.87783
50.76	4.31033
50.98	7.74881
51.2	3.5478
51.42	8.80047
51.64	8.93345
51.86	1.90814
52.08	0.331966
52.3	5.7919
52.52	8.99273
52.74	1.19927
52.96	6.30032
53.18	11.0882
53.4	1.23508
53.62	3.26876
53.84	3.21569
54.06	1.86325
54.28	13.0536
54.5	6.90294
54.72	2.45695
54.94	153.446
55.16	17.5604
55.38	7.39552
55.6	16.2957
55.82	1.89009
56.04	5.70571
56.26	4.69101
56.48	4.7768
56.7	0.819956
56.92	29.1744
57.14	8.16572
57.36	3.2555
57.58	15.0099
57.8	8.91266
58.02	3.1284
58.24	4.76358
58.46	4.63959
58.68	0.657022
58.9	24.8398
59.12	7.64668
59.34	3.11951
59.56	6.92163
59.78	2.20858
60	2.64433
60.22	7.71723
60.44	11.1103
60.66	385.11
60.88	31.2497
61.1	6.1352
61.32	4.77474
61.54	2.18143
61.76	10.1251
61.98	0.838527
62.2	4.35917
62.42	8.44724
62.64	4.38492
62.86	3.16593
63.08	2.48448
63.3	0.54564
63.52	6.48888
63.74	0.503637
63.96	7.38908
64.18	2.24679
64.4	4.23687
64.62	11.8677
64.84	1.43305
65.06	12.2558
65.28	7.10338
65.5	3.57214
65.72	6.17776
65.94	7.97524
66.16	0.784805
66.38	4.67587
66.6	11.204
66.82	36.3617
67.04	28.7326
67.26	9.97765
67.48	9.16057
67.7	18.3481
67.92	2.98273
68.14	12.2505
68.36	11.4997
68.58	1.67304
68.8	2.88719
69.02	0.048349
69.24	23.1754
69.46	18.1981
69.68	4.24123
69.9	19.3893
70.12	28.2198
70.34	0.735072
70.56	9.42137
70.78	6.66035
71	7.13108
71.22	14.4612
71.44	0.264538
71.66	6.63656
71.88	7.7835
72.1	3.91517
72.32	7.17913
72.54	4.43559
72.76	8.27091
72.98	1.29807
73.2	11.1076
73.42	8.90141
73.64	1.82408
73.86	3.737
74.08	1.98578
74.3	7.11651
74.52	4.1888
74.74	11.1389
74.96	4.8989
75.18	1.8486
75.4	1.91757
75.62	1.99884
75.84	57.0106
76.06	53.0288
76.28	3.00087
76.5	1.65863
76.72	3.3352
76.94	4.33366
77.16	0.357834
77.38	10.2839
77.6	3.22354
77.82	2.06877
78.04	3.05335
78.26	0.016634
78.48	64.2442
78.7	27.2617
78.92	22.3145
79.14	11.5045
79.36	4.5702
79.58	4.65061
79.8	0.927786
80.02	13.251
80.24	10.7188
80.46	6.81807
80.68	0.869932
80.9	2.79907
81.12	0.041479
81.34	7.1322
81.56	3.3215
81.78	4.12364
82	5.97877
82.22	4.69623
82.44	0.261847
82.66	3.91489
82.88	1.65269
83.1	1.45892
83.32	10.3877
83.54	7.0398
83.76	2.8765
83.98	6.7597
84.2	5.87495
84.42	8.26039
84.64	0.620309
84.86	3.82542
85.08	4.08775
85.3	8.40536
85.52	5.85098
85.74	2.92058
85.96	1.05897
86.18	2.19935
86.4	1.36312
86.62	1.48046
86.84	4.24588
87.06	0.143204
87.28	0.113546
87.5	1.94317
87.72	3.70104
87.94	1.50947
88.16	1.47673
88.38	2.4936
88.6	8.3931
88.82	9.51488
89.04	3.48166
89.26	4.44219
89.48	5.63036
89.7	3.97939
89.92	6.80248
