Measurement: Powder, Xray Data XY Processed
Mineral: Topaz
Rruff sample: R050200
Ideal chemistry: Al_2_SiO_4_F_2_
Locality: Jos Plateau, Nigeria
Source: Marcus Origlieri
Description: Colorless water-worn single crystal
Diffraction sample description: Powder
Measured chemistry: Al_2.000_Si_1.000_O_4.000_F_1.488_(OH)_0.512_
Cell parameters: a: 4.64881(8) b: 8.7952(2) c: 8.3913(2) alpha: 90. beta: 90. gamma: 90. volume: 343.104(8) crystal system: orthorhombic
x	intensity
5	0
5.22	10.1181
5.44	3.97789
5.66	1.3597
5.88	11.9179
6.1	7.78218
6.32	4.17017
6.54	23.8079
6.76	6.77191
6.98	10.8542
7.2	9.80506
7.42	0.468568
7.64	5.21085
7.86	1.84997
8.08	2.65835
8.3	1.39468
8.52	10.601
8.74	5.5118
8.96	14.7775
9.18	1.37002
9.4	3.88906
9.62	5.04205
9.84	7.44872
10.06	3.84278
10.28	5.09877
10.5	4.92889
10.72	12.0158
10.94	7.26501
11.16	6.29855
11.38	10.5003
11.6	9.59356
11.82	4.53007
12.04	3.62945
12.26	5.59088
12.48	3.23334
12.7	6.33323
12.92	9.31954
13.14	5.54798
13.36	0.504593
13.58	4.68633
13.8	4.77331
14.02	2.83013
14.24	3.03021
14.46	10.0731
14.68	7.42933
14.9	1.67616
15.12	4.90969
15.34	3.18079
15.56	5.317
15.78	7.64226
16	0.444286
16.22	6.57824
16.44	2.74809
16.66	0.844966
16.88	7.04106
17.1	5.86298
17.32	6.03156
17.54	0.746912
17.76	7.3325
17.98	9.34268
18.2	3.28015
18.42	3.31262
18.64	1.51762
18.86	2.45034
19.08	0.51581
19.3	5.54445
19.52	6.52695
19.74	6.69523
19.96	6.55525
20.18	13.3278
20.4	2.25443
20.62	3.16343
20.84	2.097
21.06	4.18543
21.28	11.0091
21.5	11.2736
21.72	29.1791
21.94	2.09197
22.16	3.66168
22.38	11.9064
22.6	3.93401
22.82	19.8292
23.04	8.72598
23.26	5.64125
23.48	10.3379
23.7	10.5615
23.92	7.20141
24.14	634.144
24.36	11.316
24.58	8.32003
24.8	3.95773
25.02	1.07247
25.24	9.15006
25.46	7.16099
25.68	6.55147
25.9	3.4537
26.12	0.318946
26.34	10.1327
26.56	12.004
26.78	2.45184
27	14.3008
27.22	2.99111
27.44	21.4499
27.66	4.90301
27.88	78.8152
28.1	32.3516
28.32	11.9561
28.54	1.27634
28.76	4.64445
28.98	9.22409
29.2	3.87968
29.42	260.608
29.64	9.3359
29.86	28.6402
30.08	11.1324
30.3	32.5089
30.52	437.708
30.74	19.585
30.96	5.2783
31.18	1.99792
31.4	6.73184
31.62	9.50784
31.84	9.45193
32.06	7.98391
32.28	8.46637
32.5	5.22789
32.72	0.544318
32.94	6.62966
33.16	3.50955
33.38	0.52382
33.6	2.62055
33.82	9.49824
34.04	7.50852
34.26	3.20399
34.48	5.52681
34.7	12.5432
34.92	0.330902
35.14	6.24363
35.36	9.10359
35.58	5.05046
35.8	3.06877
36.02	2.94745
36.24	181.785
36.46	8.35114
36.68	2.80407
36.9	6.05453
37.12	1.34983
37.34	4.9131
37.56	68.5519
37.78	33.0861
38	24.7077
38.22	176.681
38.44	11.6824
38.66	24.1746
38.88	9.97844
39.1	11.4551
39.32	8.96818
39.54	0.557991
39.76	3.20964
39.98	7.49636
40.2	8.84494
40.42	6.11805
40.64	1.74067
40.86	2.75957
41.08	35.9112
41.3	5.43176
41.52	0.938321
41.74	24.4317
41.96	4.85635
42.18	0.790639
42.4	0.10133
42.62	29.7969
42.84	13.502
43.06	133.509
43.28	10.4831
43.5	2.07405
43.72	3.52246
43.94	11.9343
44.16	59.3416
44.38	3.91714
44.6	1.3373
44.82	4.46834
45.04	0.709567
45.26	0.618784
45.48	3.93804
45.7	17.9114
45.92	7.43412
46.14	3.35882
46.36	6.43329
46.58	0.604652
46.8	1.33507
47.02	13.6605
47.24	6.76508
47.46	9.34202
47.68	4.55684
47.9	9.27611
48.12	2.01872
48.34	3.80283
48.56	5.42419
48.78	105.313
49	22.8024
49.22	117.84
49.44	4.59094
49.66	0.672962
49.88	0.433407
50.1	47.6824
50.32	7.92295
50.54	2.2503
50.76	6.78791
50.98	25.4477
51.2	0.70174
51.42	19.1803
51.64	7.64761
51.86	2.04674
52.08	3.5267
52.3	0.16001
52.52	7.4973
52.74	6.18295
52.96	4.34829
53.18	3.45901
53.4	6.36145
53.62	10.3063
53.84	1.80485
54.06	6.88745
54.28	3.42564
54.5	1.21393
54.72	2.8134
54.94	195.491
55.16	34.3766
55.38	1.45952
55.6	12.092
55.82	3.74152
56.04	12.671
56.26	8.70603
56.48	1.26556
56.7	11.6325
56.92	14.8673
57.14	1.82537
57.36	1.72633
57.58	9.57838
57.8	7.53218
58.02	3.78844
58.24	2.95149
58.46	23.8085
58.68	5.68723
58.9	8.85232
59.12	3.77383
59.34	8.44593
59.56	7.15788
59.78	4.0945
60	0.796739
60.22	4.74276
60.44	29.0622
60.66	127.099
60.88	23.3437
61.1	6.46312
61.32	10.4241
61.54	5.6224
61.76	3.24215
61.98	5.68876
62.2	6.91932
62.42	7.07681
62.64	10.0058
62.86	14.3057
63.08	8.37057
63.3	4.50355
63.52	8.26875
63.74	8.94884
63.96	8.64609
64.18	2.21181
64.4	2.13048
64.62	16.6155
64.84	2.9567
65.06	4.54403
65.28	0.013426
65.5	4.17009
65.72	17.0966
65.94	46.4853
66.16	5.00314
66.38	2.43173
66.6	30.8789
66.82	81.563
67.04	56.4994
67.26	20.7188
67.48	17.6727
67.7	13.7723
67.92	1.66602
68.14	20.9442
68.36	14.5895
68.58	4.19255
68.8	5.6965
69.02	8.78559
69.24	64.4908
69.46	52.8317
69.68	14.0186
69.9	16.5676
70.12	21.2216
70.34	0.526471
70.56	1.21333
70.78	8.7706
71	22.4367
71.22	15.0056
71.44	3.19364
71.66	1.78608
71.88	3.43699
72.1	3.63611
72.32	13.7515
72.54	0.827295
72.76	9.78471
72.98	9.31885
73.2	5.02329
73.42	3.67521
73.64	1.44262
73.86	4.73715
74.08	17.0404
74.3	7.16647
74.52	8.33641
74.74	4.3986
74.96	6.31273
75.18	2.36657
75.4	4.38779
75.62	3.74155
75.84	20.6626
76.06	38.567
76.28	12.1281
76.5	0.686642
76.72	5.67565
76.94	5.47728
77.16	7.37698
77.38	2.31447
77.6	8.29643
77.82	3.16024
78.04	3.9532
78.26	4.42415
78.48	36.9605
78.7	24.1001
78.92	27.2769
79.14	14.1374
79.36	0.396999
79.58	3.63587
79.8	12.7589
80.02	18.0782
80.24	7.38873
80.46	2.71625
80.68	3.48903
80.9	6.18965
81.12	1.79101
81.34	0.394499
81.56	0.669473
81.78	0.057934
82	5.75871
82.22	2.52088
82.44	1.88247
82.66	6.75497
82.88	9.25935
83.1	10.9169
83.32	7.69076
83.54	8.68412
83.76	4.37514
83.98	12.4414
84.2	2.62933
84.42	8.07144
84.64	6.55411
84.86	6.02136
85.08	0.717903
85.3	5.72593
85.52	0.101038
85.74	0.600964
85.96	1.70061
86.18	2.96698
86.4	7.12789
86.62	3.50409
86.84	7.50304
87.06	4.1668
87.28	0.194093
87.5	0.205334
87.72	3.12054
87.94	2.07806
88.16	6.06161
88.38	1.98529
88.6	8.10025
88.82	13.115
89.04	8.03083
89.26	6.29288
89.48	1.49634
89.7	3.06268
89.92	0.11501
