Measurement: Powder, Xray Data XY Processed
Mineral: Tremolite
Rruff sample: R050498
Ideal chemistry: [box]Ca_2_Mg_5_Si_8_O_22_(OH)_2_
Locality: Inyo County, California, USA
Source: California Institute of Technology
Description: Group of pale blue parallel acicular crystals
Diffraction sample description: Powder
Measured chemistry: (Ca_1.95_Na_0.05_)_Σ=2_(Mg_4.75_Fe^3+^_0.13_Fe^2+^_0.07_Mn_0.05_)_Σ=5_(Si_7.92_Al_0.08_)_Σ=8_O_22_(OH)_2_; OH estimated by charge balance
Cell parameters: a: 9.8398(2) b: 18.0523(6) c: 5.2757(4) alpha: 90. beta: 104.759(5) gamma: 90. volume: 906.21(7) crystal system: monoclinic
x	intensity
5	0
5.22	0.312504
5.44	15.2583
5.66	14.4989
5.88	7.28064
6.1	13.1917
6.32	3.37767
6.54	17.6224
6.76	3.27526
6.98	10.4488
7.2	7.80591
7.42	10.258
7.64	8.66609
7.86	7.12665
8.08	5.63248
8.3	6.3228
8.52	9.49604
8.74	5.51549
8.96	3.34353
9.18	10.8666
9.4	5.5436
9.62	17.4926
9.84	149.442
10.06	7.90705
10.28	6.98708
10.5	540.164
10.72	18.0149
10.94	7.44099
11.16	0.068978
11.38	4.60145
11.6	8.03981
11.82	5.33917
12.04	5.64497
12.26	15.8138
12.48	7.90031
12.7	14.9537
12.92	7.95121
13.14	4.98033
13.36	5.10631
13.58	0.933084
13.8	8.65225
14.02	8.45685
14.24	9.62202
14.46	3.59134
14.68	9.48181
14.9	6.27606
15.12	14.3515
15.34	7.10061
15.56	4.03483
15.78	18.7381
16	7.01059
16.22	1.96247
16.44	3.97678
16.66	6.65527
16.88	8.75963
17.1	1.43157
17.32	15.5717
17.54	9.32086
17.76	2.56641
17.98	3.67639
18.2	49.3552
18.42	4.14257
18.64	54.0115
18.86	10.2991
19.08	8.64196
19.3	13.5592
19.52	4.64453
19.74	48.7981
19.96	11.9877
20.18	1.94637
20.4	8.99379
20.62	1.3234
20.84	8.88748
21.06	25.0272
21.28	7.95637
21.5	7.87294
21.72	12.1236
21.94	4.72664
22.16	5.35899
22.38	4.7998
22.6	4.78126
22.82	3.83222
23.04	19.8257
23.26	2.03703
23.48	3.03632
23.7	10.0051
23.92	0.041851
24.14	5.07733
24.36	3.11297
24.58	7.91036
24.8	3.25057
25.02	8.17679
25.24	5.72046
25.46	10.1337
25.68	8.13875
25.9	4.81163
26.12	7.30574
26.34	54.5501
26.56	14.8705
26.78	10.9741
27	1.83528
27.22	214.285
27.44	21.8553
27.66	3.59845
27.88	7.43264
28.1	4.90164
28.32	4.94902
28.54	324.755
28.76	24.1878
28.98	1.28526
29.2	15.8146
29.42	7.33126
29.64	1.45773
29.86	13.8884
30.08	12.1549
30.3	7.87684
30.52	47.8406
30.74	6.83969
30.96	0.910408
31.18	4.66488
31.4	1.69419
31.62	4.2833
31.84	36.2261
32.06	4.09419
32.28	2.75236
32.5	15.9721
32.72	30.8198
32.94	12.0335
33.16	82.3601
33.38	18.6095
33.6	4.46122
33.82	4.84678
34.04	4.08605
34.26	4.31852
34.48	10.6959
34.7	31.0826
34.92	7.14957
35.14	17.2821
35.36	13.702
35.58	10.0734
35.8	8.27618
36.02	8.72437
36.24	8.49583
36.46	7.62659
36.68	12.5214
36.9	11.4751
37.12	5.28472
37.34	10.7633
37.56	3.17062
37.78	18.4323
38	9.64111
38.22	7.32357
38.44	12.7162
38.66	15.5296
38.88	26.676
39.1	8.20837
39.32	17.0774
39.54	15.3778
39.76	4.46949
39.98	6.06883
40.2	4.38688
40.42	0.329252
40.64	12.87
40.86	6.07069
41.08	6.23436
41.3	13.0722
41.52	6.84589
41.74	38.0021
41.96	9.71362
42.18	9.11462
42.4	7.21774
42.62	5.58304
42.84	4.8834
43.06	2.14001
43.28	0.178496
43.5	11.3111
43.72	1.27499
43.94	7.09303
44.16	8.89181
44.38	18.8417
44.6	15.6689
44.82	16.5767
45.04	36.1564
45.26	15.8582
45.48	14.1419
45.7	9.39359
45.92	8.40214
46.14	9.51318
46.36	4.03083
46.58	0.752023
46.8	12.6939
47.02	9.86575
47.24	11.8286
47.46	6.28986
47.68	1.79515
47.9	12.1552
48.12	34.1466
48.34	15.2
48.56	5.33027
48.78	23.017
49	8.19884
49.22	0.166268
49.44	17.3286
49.66	9.58837
49.88	7.56966
50.1	8.72187
50.32	21.0853
50.54	10.7881
50.76	10.3513
50.98	6.81227
51.2	4.97929
51.42	1.79524
51.64	4.13865
51.86	15.5471
52.08	0.493799
52.3	8.44797
52.52	20.3638
52.74	8.06863
52.96	5.73286
53.18	5.25252
53.4	11.7277
53.62	6.09243
53.84	4.97061
54.06	4.66585
54.28	1.41309
54.5	15.2596
54.72	11.1541
54.94	8.09244
55.16	7.80428
55.38	1.77418
55.6	5.30818
55.82	39.5764
56.04	7.34554
56.26	16.4633
56.48	7.95779
56.7	5.96913
56.92	37.1759
57.14	9.19233
57.36	1.19883
57.58	5.70894
57.8	0.162889
58.02	0.1675
58.24	6.74076
58.46	23.423
58.68	8.49589
58.9	3.46032
59.12	9.36222
59.34	3.18083
59.56	9.58561
59.78	11.8419
60	2.83209
60.22	10.5593
60.44	13.6653
60.66	3.80272
60.88	3.43931
61.1	2.29677
61.32	9.22511
61.54	10.4251
61.76	36.7064
61.98	10.8263
62.2	7.71019
62.42	12.9049
62.64	12.0294
62.86	2.18131
63.08	7.22884
63.3	6.78601
63.52	7.78587
63.74	6.5111
63.96	0.50637
64.18	11.3898
64.4	8.51854
64.62	6.05999
64.84	28.5648
65.06	12.8035
65.28	2.25814
65.5	3.61812
65.72	3.77498
65.94	2.97184
66.16	4.18655
66.38	11.3001
66.6	5.42833
66.82	5.21422
67.04	6.89427
67.26	1.60424
67.48	3.70419
67.7	6.23609
67.92	1.94134
68.14	9.75706
68.36	3.57695
68.58	5.88624
68.8	18.7685
69.02	19.7917
69.24	20.3948
69.46	5.11068
69.68	10.8878
69.9	8.79496
70.12	12.622
70.34	9.57853
70.56	14.4749
70.78	8.50206
71	9.85309
71.22	0.290671
71.44	3.91028
71.66	6.1217
71.88	12.3145
72.1	22.3852
72.32	5.21484
72.54	1.394
72.76	4.6317
72.98	5.81582
73.2	7.01156
73.42	17.1605
73.64	6.22046
73.86	7.2598
74.08	6.24326
74.3	1.3347
74.52	11.5342
74.74	2.84025
74.96	7.90847
75.18	3.09124
75.4	7.21642
75.62	0.26904
75.84	0.5543
76.06	0.689904
76.28	12.6809
76.5	2.72798
76.72	1.40601
76.94	13.6136
77.16	8.45393
77.38	9.32596
77.6	14.3014
77.82	7.24729
78.04	11.5029
78.26	5.35354
78.48	6.6751
78.7	7.72076
78.92	5.70987
79.14	3.78097
79.36	6.72682
79.58	0.660072
79.8	4.50006
80.02	17.4643
80.24	11.8544
80.46	1.38334
80.68	9.35974
80.9	12.1221
81.12	12.039
81.34	2.11294
81.56	4.98944
81.78	7.13819
82	3.60374
82.22	3.19929
82.44	4.34239
82.66	6.11451
82.88	3.26319
83.1	4.33371
83.32	1.68328
83.54	14.3252
83.76	10.4026
83.98	9.41308
84.2	11.0482
84.42	2.29427
84.64	7.03426
84.86	0.025442
85.08	4.8083
85.3	12.6753
85.52	4.60515
85.74	1.33752
85.96	4.30055
86.18	2.14213
86.4	10.658
86.62	5.63667
86.84	7.35311
87.06	1.29752
87.28	9.32172
87.5	1.49502
87.72	3.81376
87.94	14.9523
88.16	7.17917
88.38	1.31488
88.6	11.3714
88.82	5.95135
89.04	9.03253
89.26	8.1056
89.48	9.93942
89.7	4.73839
89.92	5.39352
