Measurement: Powder, Xray Data XY Processed
Mineral: Tremolite
Rruff sample: R050167
Ideal chemistry: [box]Ca_2_Mg_5_Si_8_O_22_(OH)_2_
Locality: Hunza Valley, Afghanistan
Source: Marcus Origlieri
Description: Green tabular crystals
Diffraction sample description: Powder
Measured chemistry: ([box]_0.90_Na_0.10_)(Ca_0.98_Mg_0.01_Fe^2+^_0.01_)_2_(Mg_0.94_Al_0.06_)_5_(Si_0.95_Al_0.05_)_8_O_22_((OH)_0.98_F_0.02_)_2_
Cell parameters: a: 9.8270(2) b: 18.0314(4) c: 5.2804(2) alpha: 90. beta: 104.853(3) gamma: 90. volume: 904.40(4) crystal system: monoclinic
x	intensity
5	0
5.22	10.475
5.44	12.58
5.66	0.981
5.88	2.068
6.1	17.127
6.32	17.4
6.54	9.927
6.76	12.597
6.98	0.21
7.2	6.915
7.42	9.83
7.64	4.563
7.86	4.295
8.08	7.134
8.3	2.444
8.52	3.592
8.74	5.741
8.96	5.287
9.18	8.304
9.4	13.077
9.62	10.004
9.84	338.728
10.06	6.708
10.28	16.854
10.5	421.221
10.72	20.62
10.94	8.324
11.16	4.783
11.38	7.223
11.6	12.679
11.82	4.338
12.04	6.9
12.26	8.373
12.48	8.998
12.7	3.341
12.92	5.336
13.14	5.621
13.36	6.473
13.58	10.769
13.8	3.961
14.02	0.814
14.24	7.303
14.46	3.392
14.68	2.723
14.9	11.671
15.12	1.715
15.34	2.768
15.56	5.258
15.78	6.802
16	5.769
16.22	7.747
16.44	3.679
16.66	0.541
16.88	0.694
17.1	0.074
17.32	1.894
17.54	41.576
17.76	8.236
17.98	1.308
18.2	66.47
18.42	0.729
18.64	15.709
18.86	4.742
19.08	6.025
19.3	3.38
19.52	0.694
19.74	139.734
19.96	6.96
20.18	1.184
20.4	0.541
20.62	3.727
20.84	1.713
21.06	18.027
21.28	15.214
21.5	4.144
21.72	0.025
21.94	7.896
22.16	2.892
22.38	12.348
22.6	1.486
22.82	3.606
23.04	26.344
23.26	3.496
23.48	3.398
23.7	5.596
23.92	7.976
24.14	9.919
24.36	4.04
24.58	0.285
24.8	9.251
25.02	6.952
25.24	3.346
25.46	2.909
25.68	0.189
25.9	4.98
26.12	5.429
26.34	39.666
26.56	18.591
26.78	7.366
27	7.733
27.22	58.816
27.44	16.758
27.66	2.763
27.88	0.789
28.1	12.903
28.32	3.979
28.54	73.898
28.76	83.899
28.98	0.965
29.2	2.8
29.42	0.923
29.64	16.05
29.86	9.341
30.08	0.645
30.3	10.654
30.52	95.994
30.74	11.697
30.96	16.772
31.18	1.951
31.4	3.938
31.62	5.05
31.84	7.049
32.06	36.977
32.28	12.779
32.5	4.877
32.72	28.424
32.94	25.759
33.16	353.494
33.38	18.736
33.6	1.344
33.82	0.41
34.04	4.638
34.26	3.84
34.48	6.946
34.7	51.206
34.92	13.911
35.14	21.833
35.36	68.943
35.58	9.445
35.8	6.7
36.02	7.78
36.24	3.691
36.46	4.647
36.68	0.422
36.9	7.521
37.12	1.99
37.34	29.087
37.56	15.731
37.78	48.364
38	5.073
38.22	1.727
38.44	14.522
38.66	68.588
38.88	94.896
39.1	3.224
39.32	51.497
39.54	29.367
39.76	3.57
39.98	6.922
40.2	4.074
40.42	3.169
40.64	6.293
40.86	14.385
41.08	6.217
41.3	1.281
41.52	12.894
41.74	22.324
41.96	54.878
42.18	8.95
42.4	15.254
42.62	7.53
42.84	1.958
43.06	13.983
43.28	1.042
43.5	1.126
43.72	9.731
43.94	0.571
44.16	3.077
44.38	44.95
44.6	2.122
44.82	13.368
45.04	109.074
45.26	4.609
45.48	34.726
45.7	1.82
45.92	2.883
46.14	8.951
46.36	14.958
46.58	0.671
46.8	16.995
47.02	10.679
47.24	11.852
47.46	4.759
47.68	0.656
47.9	10.342
48.12	85.11
48.34	13.91
48.56	12.979
48.78	8.968
49	37.443
49.22	5.257
49.44	19.449
49.66	4.99
49.88	4.389
50.1	2.153
50.32	27.49
50.54	15.905
50.76	9.419
50.98	9.543
51.2	3.64
51.42	0.803
51.64	6.078
51.86	4.555
52.08	5.515
52.3	10.389
52.52	8.218
52.74	5.214
52.96	0.692
53.18	9.127
53.4	7.982
53.62	6.912
53.84	3.771
54.06	14.951
54.28	8.418
54.5	10.431
54.72	4.292
54.94	5.899
55.16	7.782
55.38	0.579
55.6	7.791
55.82	73.733
56.04	12.634
56.26	60.981
56.48	8.56
56.7	1.802
56.92	17.898
57.14	21.913
57.36	6.924
57.58	5.155
57.8	12.918
58.02	10.862
58.24	62.848
58.46	33.834
58.68	4.595
58.9	0.04
59.12	1.167
59.34	12.624
59.56	15.649
59.78	4.11
60	3.993
60.22	4.004
60.44	8.992
60.66	0.097
60.88	7.146
61.1	14.574
61.32	7.487
61.54	0.451
61.76	16.816
61.98	15.058
62.2	3.288
62.42	2.645
62.64	2.623
62.86	4.494
63.08	0.541
63.3	16.469
63.52	6.803
63.74	0.383
63.96	7.22
64.18	12.81
64.4	9.786
64.62	10.93
64.84	110.18
65.06	119.355
65.28	3.584
65.5	8.76
65.72	3.012
65.94	1.318
66.16	5.093
66.38	8.366
66.6	1.768
66.82	6.768
67.04	17.912
67.26	4.967
67.48	1.991
67.7	0.1
67.92	1.913
68.14	9.622
68.36	6.505
68.58	6.796
68.8	7.852
69.02	24.623
69.24	9.075
69.46	13.778
69.68	6.317
69.9	3.236
70.12	2.891
70.34	3.725
70.56	12.961
70.78	4.89
71	2.979
71.22	14.801
71.44	10.947
71.66	0.617
71.88	8.521
72.1	16.658
72.32	13.673
72.54	8.993
72.76	6.194
72.98	13.372
73.2	27.366
73.42	14.411
73.64	2.61
73.86	0.517
74.08	6.466
74.3	8.818
74.52	3.065
74.74	1.372
74.96	10.442
75.18	6.854
75.4	2.044
75.62	2.333
75.84	6.521
76.06	2.866
76.28	3.104
76.5	2.082
76.72	2.957
76.94	7.931
77.16	6.042
77.38	6.314
77.6	7.855
77.82	14.761
78.04	7.699
78.26	9.75
78.48	6.828
78.7	7.898
78.92	4.923
79.14	8.879
79.36	12.856
79.58	8.638
79.8	2.399
80.02	6.358
80.24	1.452
80.46	8.515
80.68	3.628
80.9	13.588
81.12	8.537
81.34	3.692
81.56	7.961
81.78	0.889
82	8.223
82.22	5.303
82.44	1.427
82.66	4.441
82.88	3.63
83.1	3.539
83.32	8.2
83.54	3.209
83.76	7.392
83.98	3.214
84.2	12.328
84.42	8.2
84.64	4.192
84.86	1.838
85.08	2.164
85.3	1.949
85.52	1.914
85.74	1.896
85.96	2.892
86.18	7.71
86.4	6.903
86.62	75.736
86.84	22.868
87.06	4.967
87.28	6.005
87.5	2.977
87.72	2.154
87.94	0.66
88.16	7.444
88.38	3.457
88.6	2.419
88.82	1.467
89.04	6.556
89.26	6.702
89.48	3.405
89.7	2.255
89.92	6.57
