Measurement: Powder, Xray Data XY Processed
Mineral: Vivianite
Rruff sample: R070331
Ideal chemistry: Fe^2+^_3_(PO_4_)_2_8H_2_O
Locality: Big Fish River, Yukon Territory, Canada
Source: Mark Mauthner
Description: Platy, indigo-blue massive, associated with maricite
Diffraction sample description: Powder
Measured chemistry: (Fe^2+^_1.77_Mg_1.21_Mn_0.02_)_Σ=3_(P_1.00_O_4_)_2_·8H_2_O;  (dark phase, H_2_O is estimated by difference) : Na_1.00_Fe^2+^_1.00_P_1.00_O_4_ (light phase = maricite, with trace amounts of Mn)
Cell parameters: a: 10.0993(8) b: 13.4440(5) c: 4.6765(7) alpha: 90 beta: 104.916(6) gamma: 90 volume: 613.56(6) crystal system: monoclinic
x	intensity
5	0
5.22	35.004
5.44	7.46106
5.66	29.8391
5.88	14.4965
6.1	24.0229
6.32	39.2077
6.54	15.3247
6.76	43.5519
6.98	0.291702
7.2	13.7449
7.42	6.17366
7.64	22.6995
7.86	16.1906
8.08	10.8579
8.3	28.5419
8.52	11.2768
8.74	1.63907
8.96	26.6349
9.18	12.7087
9.4	20.8664
9.62	7.88307
9.84	24.5143
10.06	45.2519
10.28	2.07425
10.5	24.743
10.72	29.551
10.94	14.4765
11.16	62.2307
11.38	3.49191
11.6	5.57378
11.82	18.4039
12.04	37.5647
12.26	23.2359
12.48	18.7476
12.7	13.4257
12.92	4.0192
13.14	717.91
13.36	75.262
13.58	16.6991
13.8	37.5142
14.02	24.3927
14.24	15.7908
14.46	4.14758
14.68	14.0763
14.9	8.37973
15.12	15.9548
15.34	16.3241
15.56	12.0101
15.78	1.39508
16	6.31453
16.22	25.1601
16.44	18.5372
16.66	36.6158
16.88	11.6634
17.1	2.91339
17.32	0.313614
17.54	23.8288
17.76	20.4936
17.98	14.9873
18.2	68.035
18.42	26.6183
18.64	4.7305
18.86	36.0993
19.08	33.0223
19.3	6.88719
19.52	29.6006
19.74	13.0828
19.96	4.96672
20.18	33.2959
20.4	28.7103
20.62	21.0841
20.84	24.1223
21.06	21.8761
21.28	26.0777
21.5	13.7522
21.72	31.5412
21.94	62.6167
22.16	28.7593
22.38	7.05087
22.6	57.4067
22.82	16.1977
23.04	36.9409
23.26	2.80679
23.48	40.2331
23.7	27.3482
23.92	20.8117
24.14	44.9226
24.36	9.06769
24.58	21.8655
24.8	12.2957
25.02	4.67548
25.24	23.7927
25.46	24.4266
25.68	24.5541
25.9	23.3402
26.12	37.8697
26.34	30.7888
26.56	46.0851
26.78	18.7172
27	4.00859
27.22	47.9954
27.44	25.2302
27.66	39.5514
27.88	122.067
28.1	18.8434
28.32	15.1292
28.54	10.0145
28.76	36.3827
28.98	32.6891
29.2	21.9709
29.42	13.345
29.64	27.8468
29.86	29.1313
30.08	42.5185
30.3	42.9828
30.52	38.9069
30.74	4.02928
30.96	24.9355
31.18	10.4511
31.4	18.8383
31.62	10.0931
31.84	1.08064
32.06	0.122574
32.28	22.4309
32.5	8.99449
32.72	39.346
32.94	55.2368
33.16	102.141
33.38	12.477
33.6	10.4268
33.82	30.4345
34.04	51.5743
34.26	25.9264
34.48	30.2565
34.7	15.3467
34.92	72.3731
35.14	25.5647
35.36	18.5498
35.58	77.1978
35.8	49.3777
36.02	9.19998
36.24	13.4239
36.46	14.7609
36.68	11.9161
36.9	17.1401
37.12	27.854
37.34	24.6511
37.56	26.6483
37.78	3.37921
38	14.3388
38.22	11.1977
38.44	13.2303
38.66	8.48222
38.88	46.1026
39.1	5.86893
39.32	16.7405
39.54	39.3171
39.76	25.1878
39.98	8.76996
40.2	29.6919
40.42	13.3986
40.64	35.7463
40.86	9.0067
41.08	10.8346
41.3	30.1032
41.52	21.8699
41.74	15.8524
41.96	24.0637
42.18	16.0728
42.4	31.3551
42.62	0.4048
42.84	8.64062
43.06	26.0718
43.28	23.186
43.5	25.1633
43.72	40.069
43.94	38.6704
44.16	16.6907
44.38	34.5843
44.6	20.1618
44.82	5.48534
45.04	0.819824
45.26	4.4623
45.48	18.6857
45.7	18.8728
45.92	8.68304
46.14	27.6737
46.36	32.0641
46.58	6.2341
46.8	32.3703
47.02	53.2616
47.24	8.40521
47.46	29.0599
47.68	24.0342
47.9	20.8227
48.12	4.91948
48.34	7.96523
48.56	35.0152
48.78	9.26477
49	21.7227
49.22	54.9904
49.44	27.5194
49.66	12.4686
49.88	19.4107
50.1	22.3194
50.32	30.6249
50.54	31.5908
50.76	40.7758
50.98	35.3055
51.2	17.8042
51.42	7.43079
51.64	31.7339
51.86	0.583237
52.08	36.6309
52.3	23.199
52.52	10.9364
52.74	6.06598
52.96	13.7635
53.18	3.91296
53.4	56.4354
53.62	24.9288
53.84	18.5031
54.06	35.0746
54.28	8.0313
54.5	17.7777
54.72	69.6295
54.94	30.4059
55.16	34.4389
55.38	6.83206
55.6	47.7692
55.82	17.3788
56.04	11.4711
56.26	17.4
56.48	41.0977
56.7	5.88956
56.92	10.0645
57.14	25.8862
57.36	18.5163
57.58	19.7066
57.8	41.008
58.02	32.801
58.24	7.98534
58.46	33.2829
58.68	24.9345
58.9	25.7627
59.12	32.2351
59.34	31.2066
59.56	32.1713
59.78	20.5081
60	7.49324
60.22	1.83803
60.44	8.96579
60.66	38.3646
60.88	36.0756
61.1	17.4442
61.32	10.6391
61.54	41.6279
61.76	37.7281
61.98	46.5701
62.2	14.9807
62.42	24.0097
62.64	23.5381
62.86	10.1744
63.08	0.83577
63.3	8.0816
63.52	30.8263
63.74	17.5293
63.96	18.613
64.18	14.786
64.4	35.4871
64.62	45.7834
64.84	20.6743
65.06	36.2127
65.28	37.2605
65.5	40.8222
65.72	3.95261
65.94	15.3999
66.16	29.0231
66.38	14.9631
66.6	10.9495
66.82	9.69247
67.04	21.3449
67.26	14.748
67.48	22.2949
67.7	32.6964
67.92	30.0271
68.14	38.9495
68.36	2.17217
68.58	20.6671
68.8	2.46172
69.02	6.55481
69.24	30.8692
69.46	21.7074
69.68	5.28775
69.9	48.6922
70.12	38.8947
70.34	16.1313
70.56	16.2399
70.78	21.1827
71	22.985
71.22	17.826
71.44	22.845
71.66	4.68089
71.88	17.8111
72.1	0.849304
72.32	13.7081
72.54	6.17366
72.76	22.5028
72.98	34.1947
73.2	29.7745
73.42	33.983
73.64	35.0316
73.86	6.94199
74.08	15.1479
74.3	19.3262
74.52	25.4781
74.74	30.8494
74.96	25.0509
75.18	29.3083
75.4	10.3199
75.62	18.7131
75.84	2.03798
76.06	38.1307
76.28	26.52
76.5	15.1248
76.72	16.6734
76.94	26.9444
77.16	13.292
77.38	15.3239
77.6	16.8245
77.82	16.8634
78.04	2.98853
78.26	23.7693
78.48	12.8771
78.7	25.1666
78.92	22.1356
79.14	27.0513
79.36	0.414795
79.58	10.8008
79.8	11.0845
80.02	26.5067
80.24	17.3654
80.46	3.38039
80.68	3.69426
80.9	18.132
81.12	8.56656
81.34	28.0901
81.56	18.7131
81.78	16.87
82	14.7096
82.22	7.34857
82.44	25.8138
82.66	27.6683
82.88	11.0746
83.1	30.6899
83.32	2.5992
83.54	30.4627
83.76	15.5757
83.98	17.5963
84.2	20.5135
84.42	18.476
84.64	14.305
84.86	19.4849
85.08	22.3692
85.3	0.461609
85.52	0.652573
85.74	37.6317
85.96	20.8072
86.18	28.2236
86.4	25.7061
86.62	31.032
86.84	1.10503
87.06	24.7396
87.28	17.2782
87.5	29.6602
87.72	34.4413
87.94	45.7448
88.16	34.5746
88.38	50.6661
88.6	7.13231
88.82	30.525
89.04	16.2434
89.26	0.486664
89.48	27.312
89.7	41.4662
89.92	38.5047
