Measurement: Powder, Xray Data XY Processed
Mineral: Vivianite
Rruff sample: R050464
Ideal chemistry: Fe^2+^_3_(PO_4_)_2_8H_2_O
Locality: Siglo XX mine, Llallagua, Potosi, Bolivia
Source: University of Arizona Mineral Museum
Description: Bluish green elongated prismatic crystals
Diffraction sample description: Powder, cell parameters are from single crystal
Measured chemistry: Fe^2+^_3.00_(P_1.00_O_4_)_2_Â·8H_2_O
Cell parameters: a: 10.096(2) b: 13.439(4) c: 4.715(1) alpha: 90 beta: 104.41(1) gamma: 90 volume: 619.6(2) crystal system: monoclinic
x	intensity
5	0
5.22	28.7486
5.44	33.0153
5.66	12.3522
5.88	14.9583
6.1	14.7459
6.32	31.8473
6.54	29.3012
6.76	11.2887
6.98	17.6573
7.2	13.6149
7.42	4.32655
7.64	16.2895
7.86	10.2179
8.08	29.4724
8.3	8.26503
8.52	33.4224
8.74	11.7
8.96	14.1392
9.18	30.9584
9.4	36.7941
9.62	19.638
9.84	38.4493
10.06	40.2836
10.28	41.0446
10.5	24.5449
10.72	20.7846
10.94	31.8811
11.16	44.3909
11.38	28.1319
11.6	30.6199
11.82	30.9525
12.04	26.808
12.26	44.8961
12.48	10.0289
12.7	103.285
12.92	77.828
13.14	134.996
13.36	38.0873
13.58	8.48917
13.8	11.4214
14.02	27.5036
14.24	11.0393
14.46	8.91065
14.68	14.0312
14.9	24.9534
15.12	24.4672
15.34	5.70462
15.56	24.6767
15.78	29.6884
16	54.4237
16.22	15.9247
16.44	32.0211
16.66	31.4752
16.88	28.6099
17.1	46.5319
17.32	28.8761
17.54	8.96042
17.76	56.3205
17.98	40.9414
18.2	49.3025
18.42	35.838
18.64	23.5182
18.86	1.94426
19.08	33.5431
19.3	11.8805
19.52	18.1165
19.74	49.3856
19.96	34.7358
20.18	3.7981
20.4	34.1215
20.62	48.2165
20.84	11.0705
21.06	22.5101
21.28	0.975311
21.5	39.6003
21.72	6.75584
21.94	22.439
22.16	21.1729
22.38	0.371567
22.6	22.3156
22.82	51.6323
23.04	39.6068
23.26	33.1424
23.48	20.1986
23.7	1.70962
23.92	25.6468
24.14	27.9631
24.36	20.5585
24.58	17.0322
24.8	7.66333
25.02	17.0097
25.24	37.5492
25.46	12.0682
25.68	30.6669
25.9	6.26566
26.12	37.2849
26.34	40.4767
26.56	26.5586
26.78	14.7694
27	13.5203
27.22	29.0504
27.44	7.02445
27.66	32.7099
27.88	26.1745
28.1	25.1918
28.32	8.84059
28.54	30.4399
28.76	24.4907
28.98	21.4992
29.2	26.6121
29.42	43.9959
29.64	31.9698
29.86	32.5221
30.08	32.395
30.3	23.0437
30.52	28.9313
30.74	17.7756
30.96	9.83789
31.18	17.0608
31.4	9.93434
31.62	15.2639
31.84	7.38556
32.06	23.6432
32.28	42.3683
32.5	18.656
32.72	4.56596
32.94	27.7429
33.16	22.499
33.38	24.7842
33.6	52.5284
33.82	26.9306
34.04	10.0929
34.26	11.1623
34.48	24.5867
34.7	23.1458
34.92	41.5641
35.14	37.9772
35.36	15.8434
35.58	22.8093
35.8	35.8731
36.02	4.98866
36.24	50.6588
36.46	37.4826
36.68	5.43837
36.9	25.0194
37.12	31.3535
37.34	50.8601
37.56	5.60527
37.78	24.4965
38	22.8605
38.22	33.1718
38.44	16.6348
38.66	10.4891
38.88	34.2928
39.1	21.3239
39.32	27.1966
39.54	25.705
39.76	34.0168
39.98	0.776428
40.2	32.4561
40.42	41.9489
40.64	34.3023
40.86	32.7408
41.08	7.23099
41.3	26.1684
41.52	57.0091
41.74	38.66
41.96	21.4561
42.18	27.028
42.4	19.0168
42.62	47.8702
42.84	28.1658
43.06	39.5445
43.28	40.0903
43.5	13.5258
43.72	25.9964
43.94	23.516
44.16	34.2714
44.38	33.0881
44.6	19.0109
44.82	42.1805
45.04	26.8346
45.26	29.2197
45.48	27.7946
45.7	13.0536
45.92	13.7242
46.14	16.0785
46.36	20.0942
46.58	36.8302
46.8	35.4631
47.02	19.7205
47.24	30.2015
47.46	16.0852
47.68	20.4373
47.9	19.4211
48.12	22.5074
48.34	25.5433
48.56	20.1389
48.78	37.899
49	40.3744
49.22	16.5281
49.44	12.6144
49.66	3.96246
49.88	28.5443
50.1	24.1361
50.32	35.7223
50.54	6.8107
50.76	8.85371
50.98	30.9077
51.2	17.334
51.42	25.557
51.64	7.28423
51.86	13.7187
52.08	19.0662
52.3	0.478409
52.52	18.7723
52.74	24.6059
52.96	21.9512
53.18	0.797409
53.4	16.7355
53.62	38.5549
53.84	36.651
54.06	38.6945
54.28	14.9553
54.5	1.62854
54.72	1.93283
54.94	35.904
55.16	25.8177
55.38	16.4322
55.6	11.9165
55.82	16.9248
56.04	18.0361
56.26	15.1004
56.48	31.0796
56.7	15.9233
56.92	45.2007
57.14	31.6954
57.36	6.01559
57.58	36.5279
57.8	20.4091
58.02	13.3368
58.24	40.9304
58.46	17.2441
58.68	40.0887
58.9	22.5676
59.12	20.1583
59.34	26.7837
59.56	5.19881
59.78	29.857
60	23.5304
60.22	17.0002
60.44	26.5599
60.66	15.4212
60.88	13.0098
61.1	6.80208
61.32	17.5586
61.54	25.3895
61.76	33.1767
61.98	4.89002
62.2	3.2168
62.42	11.6595
62.64	12.3038
62.86	28.2781
63.08	11.5498
63.3	17.3714
63.52	27.6073
63.74	36.4189
63.96	12.6626
64.18	0.641846
64.4	10.2178
64.62	5.47745
64.84	18.9427
65.06	12.4967
65.28	18.8465
65.5	29.2517
65.72	34.7961
65.94	37.8423
66.16	23.701
66.38	8.00336
66.6	13.6578
66.82	7.62093
67.04	5.37727
67.26	26.9291
67.48	30.6346
67.7	30.8584
67.92	8.29065
68.14	30.8898
68.36	25.5109
68.58	2.09036
68.8	33.3848
69.02	32.1448
69.24	11.0563
69.46	9.04028
69.68	9.4924
69.9	13.4966
70.12	7.11774
70.34	14.1311
70.56	11.6691
70.78	21.1735
71	15.9535
71.22	50.1977
71.44	25.4081
71.66	20.2455
71.88	6.55333
72.1	26.3663
72.32	24.2626
72.54	42.3873
72.76	25.902
72.98	31.4731
73.2	27.8729
73.42	22.9726
73.64	28.2307
73.86	5.71288
74.08	13.6654
74.3	24.6366
74.52	14.864
74.74	23.5127
74.96	4.8598
75.18	5.91457
75.4	33.7411
75.62	6.70703
75.84	19.8002
76.06	16.1555
76.28	45.0759
76.5	26.087
76.72	10.3294
76.94	18.7273
77.16	7.9848
77.38	17.8174
77.6	35.9766
77.82	14.4961
78.04	32.5816
78.26	7.98346
78.48	25.9661
78.7	3.54205
78.92	35.6714
79.14	22.9884
79.36	25.7573
79.58	10.0361
79.8	36.3437
80.02	9.36115
80.24	11.6759
80.46	22.7573
80.68	41.4012
80.9	1.26986
81.12	12.5979
81.34	35.8818
81.56	13.7019
81.78	16.4277
82	1.48325
82.22	17.3566
82.44	10.8512
82.66	9.29858
82.88	3.4154
83.1	2.53909
83.32	10.8521
83.54	24.1285
83.76	31.3705
83.98	16.8983
84.2	25.5244
84.42	18.6325
84.64	26.9624
84.86	12.5207
85.08	30.697
85.3	0.678421
85.52	12.7918
85.74	26.1219
85.96	36.6352
86.18	7.58233
86.4	12.7506
86.62	43.9835
86.84	13.9314
87.06	20.3716
87.28	16.8837
87.5	40.2067
87.72	8.35853
87.94	42.6766
88.16	34.1753
88.38	36.3758
88.6	16.7005
88.82	35.1681
89.04	8.04021
89.26	8.60629
89.48	43.2723
89.7	38.2903
89.92	13.8516
