Measurement: Powder, Xray Data XY Processed
Mineral: Actinolite
Rruff sample: R050025
Ideal chemistry: Ca_2_(Mg_4.5-2.5_Fe^2+^_0.5-2.5_)Si_8_O_22_(OH)_2_
Locality: Tyrol, Austria
Source: Eugene Schlepp
Description: Green colored bladed single crystals
Diffraction sample description: Powder
Measured chemistry: (Ca_.930_Na_.056_Mn_.010_K_.004_)_2_(Mg_.883_Fe_.117_)_5_(Si_.978_Al_.022_)_8_O_22_(OH)_2_
Cell parameters: a: 9.8283(4) b: 18.070(1) c: 5.2820(3) alpha: 90. beta: 104.624(4) gamma: 90. volume: 907.71(6) crystal system: monoclinic
x	intensity
5	0
5.22	4.038
5.44	2.111
5.66	10.704
5.88	8.879
6.1	4.541
6.32	5.887
6.54	11.589
6.76	15.743
6.98	4.828
7.2	14.367
7.42	9.077
7.64	8.125
7.86	7.466
8.08	10.171
8.3	10.663
8.52	20.706
8.74	9.675
8.96	8.975
9.18	4.755
9.4	13.962
9.62	17.593
9.84	102.156
10.06	11.393
10.28	9.75
10.5	285.259
10.72	5.204
10.94	6.455
11.16	5.051
11.38	5.447
11.6	7.271
11.82	11.666
12.04	2.424
12.26	13.004
12.48	13.642
12.7	3.319
12.92	19.272
13.14	3.158
13.36	6.109
13.58	9.054
13.8	6.844
14.02	12.211
14.24	9.079
14.46	4.592
14.68	2.464
14.9	9.167
15.12	8.283
15.34	2.074
15.56	2.176
15.78	15.748
16	6.468
16.22	10.332
16.44	4.311
16.66	7.071
16.88	10.812
17.1	2.316
17.32	7.978
17.54	21.561
17.76	9.403
17.98	22.313
18.2	75.115
18.42	11.978
18.64	8.89
18.86	4.898
19.08	4.85
19.3	2.89
19.52	3.027
19.74	22.913
19.96	0.86
20.18	12.786
20.4	6.405
20.62	5.978
20.84	1.906
21.06	8.007
21.28	15.847
21.5	1.01
21.72	1.056
21.94	5.899
22.16	18.977
22.38	10.192
22.6	1.032
22.82	3.564
23.04	17.056
23.26	3.451
23.48	1.637
23.7	4.814
23.92	0.076
24.14	7.031
24.36	16.886
24.58	19.671
24.8	44.211
25.02	39.402
25.24	22.607
25.46	17.182
25.68	19.726
25.9	11.687
26.12	3.43
26.34	94.266
26.56	2.055
26.78	8.946
27	20.007
27.22	122.322
27.44	126.033
27.66	103.371
27.88	38.922
28.1	20.149
28.32	5.201
28.54	51.642
28.76	41.671
28.98	20.135
29.2	10.45
29.42	22.842
29.64	9.481
29.86	9.794
30.08	7.533
30.3	13.293
30.52	25.898
30.74	11.584
30.96	1.81
31.18	3.995
31.4	7.272
31.62	20.708
31.84	14.897
32.06	6.737
32.28	1.403
32.5	4.472
32.72	12.883
32.94	65.154
33.16	201.681
33.38	6.497
33.6	9.888
33.82	4.745
34.04	7.752
34.26	6.319
34.48	19.229
34.7	27.284
34.92	5.32
35.14	15.855
35.36	16.712
35.58	28.87
35.8	18.507
36.02	31.586
36.24	27.105
36.46	3.6
36.68	7.578
36.9	7.766
37.12	5.929
37.34	10.958
37.56	23.797
37.78	17.292
38	11.207
38.22	6.366
38.44	3.698
38.66	44.16
38.88	35.127
39.1	14.393
39.32	6.67
39.54	1.261
39.76	8.491
39.98	7.835
40.2	2.216
40.42	6.339
40.64	5.317
40.86	11.743
41.08	1.514
41.3	6.738
41.52	17.035
41.74	92.628
41.96	2.258
42.18	1.923
42.4	8.284
42.62	1.509
42.84	13.59
43.06	21.784
43.28	20.296
43.5	12.644
43.72	26.448
43.94	11.712
44.16	4.771
44.38	29.353
44.6	11.331
44.82	27.386
45.04	55.743
45.26	29.468
45.48	9.113
45.7	12.509
45.92	10.087
46.14	4.711
46.36	4.302
46.58	7.896
46.8	9.431
47.02	16.318
47.24	23.819
47.46	16.092
47.68	17.517
47.9	3.459
48.12	17.66
48.34	1.71
48.56	10.727
48.78	46.824
49	6.828
49.22	15.505
49.44	3.68
49.66	0.676
49.88	1.443
50.1	7.718
50.32	20.95
50.54	11.474
50.76	16.966
50.98	5.708
51.2	19.055
51.42	10.708
51.64	8.394
51.86	3.754
52.08	0.239
52.3	10.17
52.52	12.607
52.74	6.903
52.96	9.575
53.18	7.37
53.4	16.989
53.62	26.253
53.84	1.693
54.06	10.077
54.28	1.575
54.5	23.996
54.72	3.059
54.94	11.054
55.16	6.912
55.38	8.712
55.6	36.179
55.82	51.813
56.04	14.485
56.26	22.22
56.48	5.001
56.7	16.358
56.92	12.331
57.14	3.629
57.36	5.346
57.58	4.633
57.8	4.691
58.02	6.474
58.24	17.157
58.46	13.416
58.68	8.926
58.9	13.395
59.12	13.041
59.34	16.988
59.56	18.911
59.78	0.075
60	2.68
60.22	7.379
60.44	14.302
60.66	8.26
60.88	10.389
61.1	11.882
61.32	15.393
61.54	23.429
61.76	22.593
61.98	9.844
62.2	2.764
62.42	0.182
62.64	10.861
62.86	6.845
63.08	11.033
63.3	13.555
63.52	0.402
63.74	6
63.96	11.054
64.18	14.237
64.4	3.058
64.62	9.322
64.84	94.021
65.06	56.284
65.28	17.576
65.5	11.843
65.72	10.17
65.94	3.138
66.16	12.707
66.38	7.187
66.6	3.217
66.82	13.039
67.04	14.151
67.26	7.145
67.48	7.257
67.7	11.079
67.92	8.015
68.14	16.683
68.36	9.372
68.58	18.136
68.8	11.44
69.02	19.625
69.24	13.177
69.46	7.722
69.68	2.17
69.9	1.241
70.12	12.046
70.34	11.522
70.56	11.894
70.78	5.061
71	7.974
71.22	1.905
71.44	5.117
71.66	21.628
71.88	16.424
72.1	10.969
72.32	15.12
72.54	24.111
72.76	3.309
72.98	7.749
73.2	6.265
73.42	9.085
73.64	6.811
73.86	18.607
74.08	5.823
74.3	12.511
74.52	12.841
74.74	3.026
74.96	6.634
75.18	1.825
75.4	2.916
75.62	6.087
75.84	14.988
76.06	16.952
76.28	18.944
76.5	16.521
76.72	2.569
76.94	7.189
77.16	6.439
77.38	4.588
77.6	8.815
77.82	3.987
78.04	0.752
78.26	2.267
78.48	9.127
78.7	9.191
78.92	10.709
79.14	5.711
79.36	3.774
79.58	0.014
79.8	10.909
80.02	24.833
80.24	19.896
80.46	8.965
80.68	14.489
80.9	8.627
81.12	7.677
81.34	0.75
81.56	2.256
81.78	4.868
82	5.019
82.22	9.15
82.44	1.284
82.66	8.26
82.88	21.804
83.1	16.04
83.32	6.009
83.54	8.08
83.76	10.719
83.98	20.54
84.2	2.671
84.42	11.834
84.64	10.935
84.86	14.938
85.08	6.609
85.3	0.87
85.52	4.941
85.74	9.567
85.96	11.376
86.18	14.774
86.4	7.604
86.62	6.155
86.84	1.652
87.06	16.399
87.28	3.486
87.5	3.724
87.72	9.087
87.94	0.613
88.16	10.26
88.38	0.725
88.6	10.195
88.82	3.625
89.04	8.925
89.26	13.527
89.48	11.976
89.7	3.523
89.92	5.868
