Measurement: Powder, Xray Data XY Processed
Mineral: Actinolite
Rruff sample: R040064
Ideal chemistry: Ca_2_(Mg_4.5-2.5_Fe^2+^_0.5-2.5_)Si_8_O_22_(OH)_2_
Locality: Ehime Perfecture, Uma Gun, Japan
Source: University of Arizona Mineral Museum
Description: Aggregate of green acicular crystals associated with chlorite
Diffraction sample description: Powder, additionally shows small amount of chlorite
Measured chemistry: (Ca_0.95_Na_0.04_Mn_0.01_)_2_(Mg_0.88_Fe_0.12_)_5_(Si_0.98_Al_0.02_)_8_O_22_(OH)_2_
Cell parameters: a: 9.8429(3) b: 18.0745(7) c: 5.2829(2) alpha: 90. beta: 104.714(4) gamma: 90. volume: 909.06(5) crystal system: monoclinic
x	intensity
5	0
5.22	8.17
5.44	4.273
5.66	15.53
5.88	4.201
6.1	5.907
6.32	45.923
6.54	27.093
6.76	21.708
6.98	6.514
7.2	13.67
7.42	19.315
7.64	20.928
7.86	1.379
8.08	17.854
8.3	12.889
8.52	6.881
8.74	20.743
8.96	13.355
9.18	10.218
9.4	2.416
9.62	5.016
9.84	165.693
10.06	12.245
10.28	15.928
10.5	223.568
10.72	16.855
10.94	10.286
11.16	14.354
11.38	6.13
11.6	3.473
11.82	7.39
12.04	16.417
12.26	0.941
12.48	32.442
12.7	7.218
12.92	4.526
13.14	12.134
13.36	11.371
13.58	12.661
13.8	7.936
14.02	4.04
14.24	2.443
14.46	12.365
14.68	9.991
14.9	6.372
15.12	6.525
15.34	10.096
15.56	18.173
15.78	1.767
16	7.979
16.22	8.256
16.44	19.265
16.66	1.652
16.88	4.328
17.1	14.734
17.32	9.076
17.54	38.71
17.76	10.015
17.98	3.798
18.2	56.267
18.42	19.95
18.64	13.493
18.86	24.29
19.08	5.687
19.3	13.899
19.52	20.191
19.74	60.184
19.96	8.319
20.18	10.464
20.4	1.578
20.62	19.813
20.84	4.357
21.06	21.795
21.28	19.612
21.5	0.805
21.72	5.637
21.94	0.344
22.16	13.824
22.38	26.974
22.6	10.086
22.82	14.818
23.04	31.069
23.26	11.892
23.48	0.989
23.7	20.026
23.92	8.931
24.14	12.619
24.36	3.797
24.58	16.518
24.8	6.411
25.02	15.966
25.24	45.61
25.46	8.64
25.68	8.148
25.9	8.027
26.12	12.326
26.34	45.886
26.56	5.601
26.78	11.397
27	4.583
27.22	84.41
27.44	14.472
27.66	10.63
27.88	2.391
28.1	9.296
28.32	17.734
28.54	146.106
28.76	56.585
28.98	10.292
29.2	7.192
29.42	9.116
29.64	16.92
29.86	18.148
30.08	11.608
30.3	28.512
30.52	65.366
30.74	0.212
30.96	4.048
31.18	0.646
31.4	6.219
31.62	19.972
31.84	9.68
32.06	12.698
32.28	2.433
32.5	2.433
32.72	16.844
32.94	24.56
33.16	196.768
33.38	16.764
33.6	7.784
33.82	7.675
34.04	15.867
34.26	5.989
34.48	11.081
34.7	70.886
34.92	1.504
35.14	18.551
35.36	17.19
35.58	18.888
35.8	6.035
36.02	8.361
36.24	11.935
36.46	11.87
36.68	16.567
36.9	2.821
37.12	6.613
37.34	27.238
37.56	1.177
37.78	19.949
38	6.749
38.22	6.237
38.44	8.24
38.66	28.236
38.88	34.089
39.1	12.723
39.32	23.343
39.54	5.893
39.76	10.338
39.98	14.179
40.2	23.764
40.42	6.418
40.64	8.749
40.86	4.047
41.08	21.368
41.3	18.02
41.52	21.426
41.74	68.612
41.96	33.836
42.18	11.044
42.4	1.071
42.62	10.43
42.84	11.193
43.06	2.221
43.28	13.067
43.5	10.228
43.72	0.709
43.94	7.857
44.16	9.315
44.38	20.031
44.6	6.83
44.82	15.236
45.04	48.551
45.26	27.637
45.48	11.507
45.7	8.673
45.92	8.146
46.14	10.218
46.36	13.419
46.58	5.137
46.8	21.022
47.02	11.716
47.24	8.062
47.46	14.817
47.68	6.401
47.9	9.238
48.12	20.467
48.34	6.514
48.56	13.466
48.78	31.944
49	22.989
49.22	2.078
49.44	16.47
49.66	10.397
49.88	17.413
50.1	7.279
50.32	29.666
50.54	14.976
50.76	15.534
50.98	11.236
51.2	3.925
51.42	7.811
51.64	5.999
51.86	4.381
52.08	4.909
52.3	7.084
52.52	18.103
52.74	12.938
52.96	1.767
53.18	7.254
53.4	12.642
53.62	3.623
53.84	0.029
54.06	14.206
54.28	14.795
54.5	1.343
54.72	17.083
54.94	3.879
55.16	5.581
55.38	11.472
55.6	22.444
55.82	34.506
56.04	14.901
56.26	21.007
56.48	2.164
56.7	11.872
56.92	24.153
57.14	4.776
57.36	14.81
57.58	9.852
57.8	9.763
58.02	14.596
58.24	14.357
58.46	35.787
58.68	4.966
58.9	17.166
59.12	23.096
59.34	8.828
59.56	10.282
59.78	5.536
60	5.437
60.22	9.469
60.44	12.724
60.66	10.062
60.88	3.303
61.1	18.926
61.32	10.182
61.54	15.973
61.76	40.464
61.98	12.105
62.2	1.951
62.42	7.048
62.64	3.885
62.86	22.61
63.08	3.325
63.3	13.365
63.52	17.881
63.74	6.274
63.96	13.792
64.18	6.933
64.4	7.676
64.62	15.056
64.84	55.473
65.06	30.32
65.28	1.788
65.5	11.278
65.72	7.313
65.94	4.746
66.16	9.022
66.38	8.591
66.6	13.369
66.82	18.211
67.04	22.471
67.26	4.117
67.48	2.682
67.7	8.464
67.92	2.199
68.14	0.845
68.36	5.644
68.58	3.806
68.8	8.277
69.02	14.707
69.24	13.371
69.46	7.733
69.68	2.426
69.9	0.015
70.12	22.994
70.34	16.899
70.56	31.496
70.78	6.438
71	11.016
71.22	7.783
71.44	9.757
71.66	5.171
71.88	1.062
72.1	61.967
72.32	36.256
72.54	8.126
72.76	11.232
72.98	16.587
73.2	17.53
73.42	14.673
73.64	5.104
73.86	7.152
74.08	18.942
74.3	2.507
74.52	6.828
74.74	13.163
74.96	8.912
75.18	1.771
75.4	7.842
75.62	11.7
75.84	1.662
76.06	2.727
76.28	23.053
76.5	15.374
76.72	3.63
76.94	11.755
77.16	8.531
77.38	9.361
77.6	10.308
77.82	5.041
78.04	3.625
78.26	5.562
78.48	13.482
78.7	16.885
78.92	14.739
79.14	2.37
79.36	4.426
79.58	1.515
79.8	7.524
80.02	23.949
80.24	12.335
80.46	7.198
80.68	8.958
80.9	3.954
81.12	9.615
81.34	12.611
81.56	3.56
81.78	4.896
82	9.215
82.22	7.2
82.44	14.769
82.66	2.661
82.88	15.934
83.1	11.832
83.32	25.853
83.54	10.078
83.76	15.275
83.98	8.758
84.2	14.583
84.42	2.625
84.64	1.312
84.86	15.681
85.08	7.295
85.3	2.159
85.52	6.014
85.74	1.144
85.96	5.23
86.18	7.777
86.4	17.479
86.62	10.843
86.84	1.498
87.06	4.484
87.28	4.548
87.5	12.509
87.72	7.752
87.94	2.169
88.16	7.624
88.38	0.612
88.6	8.567
88.82	22.494
89.04	9.248
89.26	3.626
89.48	5.028
89.7	8.949
89.92	4.841
