Measurement: Powder, Xray Data XY Processed
Mineral: Aegirine
Rruff sample: R040054
Ideal chemistry: NaFe^3+^Si_2_O_6_
Locality: Mont Saint-Hilaire, Rouville County, Quebec, Canada
Source: Bob Downs
Description: Black cleavage fragments
Diffraction sample description: Powder
Measured chemistry: (Na_0.96_Ca_0.04_)(Fe_0.86_Ti_0.07_Mn_0.06_Mg_0.02_)(Si_0.97_Al_0.03_)_2_O_6_
Cell parameters: a: 9.657(1) b: 8.8002(8) c: 5.302(3) alpha: 90. beta: 107.29(2) gamma: 90. volume: 430.2(2) crystal system: monoclinic
x	intensity
5	0
5.22	9.787
5.44	9.634
5.66	26.509
5.88	6.856
6.1	15.055
6.32	23.865
6.54	12.961
6.76	34.683
6.98	38.138
7.2	37.427
7.42	32.282
7.64	23.08
7.86	28.677
8.08	6.476
8.3	1.777
8.52	7.059
8.74	21.92
8.96	26.359
9.18	10.743
9.4	18.256
9.62	27.74
9.84	33.21
10.06	16.115
10.28	36.05
10.5	21.348
10.72	13.793
10.94	13.775
11.16	16.43
11.38	11.578
11.6	29.317
11.82	5.242
12.04	20.692
12.26	26.815
12.48	25.373
12.7	20.372
12.92	30.413
13.14	3.717
13.36	4.598
13.58	25.81
13.8	43.62
14.02	65.931
14.24	24.709
14.46	10.798
14.68	18.56
14.9	30.986
15.12	29.473
15.34	2.229
15.56	15.034
15.78	11.594
16	15.18
16.22	33.573
16.44	14.419
16.66	5.694
16.88	6.931
17.1	21.427
17.32	35.826
17.54	17.182
17.76	19.011
17.98	1.482
18.2	21.01
18.42	34.638
18.64	12.193
18.86	33.809
19.08	12.195
19.3	64.469
19.52	22.286
19.74	17.545
19.96	12.929
20.18	158.527
20.4	18.674
20.62	25.843
20.84	19.795
21.06	9.966
21.28	26.44
21.5	29.039
21.72	20.853
21.94	26.745
22.16	31.252
22.38	10.091
22.6	13.585
22.82	3.453
23.04	23.69
23.26	2.833
23.48	25.573
23.7	28.523
23.92	10.609
24.14	5.454
24.36	22.351
24.58	43.256
24.8	36.369
25.02	33.541
25.24	39.996
25.46	23.451
25.68	18.921
25.9	47.285
26.12	15.824
26.34	31.46
26.56	16.306
26.78	23.263
27	24.38
27.22	11.641
27.44	3.401
27.66	12.365
27.88	53.744
28.1	60.848
28.32	30.468
28.54	15.678
28.76	4.28
28.98	7.306
29.2	34.119
29.42	5.906
29.64	12.652
29.86	91.659
30.08	85.078
30.3	9.641
30.52	22.396
30.74	190.217
30.96	112.109
31.18	18.819
31.4	36.089
31.62	30.11
31.84	24.909
32.06	30.73
32.28	14.312
32.5	2.521
32.72	30.731
32.94	17.209
33.16	4.955
33.38	4.423
33.6	2.23
33.82	16.986
34.04	12.632
34.26	22.815
34.48	12.777
34.7	19.037
34.92	20.308
35.14	35.364
35.36	52.29
35.58	59.824
35.8	18.01
36.02	9.066
36.24	87.355
36.46	30.406
36.68	2.563
36.9	20.119
37.12	16.905
37.34	0.947
37.56	14.763
37.78	4.717
38	31.499
38.22	17.427
38.44	21.69
38.66	11.684
38.88	14.674
39.1	37.393
39.32	20.588
39.54	39.403
39.76	21.253
39.98	9.874
40.2	23.767
40.42	13.743
40.64	40.744
40.86	14.448
41.08	32.913
41.3	36.501
41.52	12.922
41.74	20.691
41.96	6.512
42.18	6.383
42.4	9.156
42.62	87.116
42.84	29.558
43.06	35.547
43.28	53.328
43.5	29.393
43.72	25.451
43.94	7.531
44.16	23.98
44.38	31.052
44.6	42.682
44.82	49.07
45.04	60.848
45.26	10.646
45.48	2.158
45.7	35.797
45.92	37.868
46.14	3.948
46.36	19.663
46.58	18.378
46.8	17.594
47.02	30.327
47.24	26.137
47.46	17.538
47.68	3.033
47.9	5.523
48.12	50.493
48.34	46.289
48.56	18.644
48.78	1.749
49	16.967
49.22	23.322
49.44	14.017
49.66	49.001
49.88	38.971
50.1	19.192
50.32	19.027
50.54	22.476
50.76	15.562
50.98	18.433
51.2	26.967
51.42	38.379
51.64	14.329
51.86	13.332
52.08	3.844
52.3	2.868
52.52	2.879
52.74	44.979
52.96	66.415
53.18	15.059
53.4	14.097
53.62	5.428
53.84	17.156
54.06	10.475
54.28	11.784
54.5	32.184
54.72	15.671
54.94	12.203
55.16	17.293
55.38	26.51
55.6	48.19
55.82	5.237
56.04	26.045
56.26	18.217
56.48	27.439
56.7	19.768
56.92	22.681
57.14	84.439
57.36	78.416
57.58	11.741
57.8	67.881
58.02	25.551
58.24	20.736
58.46	8.616
58.68	6.44
58.9	18.034
59.12	2.032
59.34	15.844
59.56	0.691
59.78	1.927
60	24.73
60.22	56.21
60.44	39.579
60.66	56.513
60.88	12.782
61.1	6.321
61.32	20.802
61.54	32.124
61.76	17.409
61.98	10.008
62.2	26.354
62.42	5.393
62.64	17.354
62.86	16.246
63.08	20.793
63.3	36.939
63.52	33.477
63.74	9.821
63.96	0.92
64.18	27.354
64.4	25.859
64.62	14.642
64.84	17.75
65.06	43.024
65.28	17.468
65.5	40.332
65.72	8.16
65.94	8.989
66.16	18.859
66.38	7.129
66.6	0.757
66.82	25.301
67.04	66.9
67.26	15.943
67.48	20.559
67.7	10.557
67.92	11.075
68.14	21.094
68.36	16.173
68.58	10.818
68.8	31.897
69.02	14.771
69.24	47.866
69.46	42.137
69.68	2.527
69.9	1.528
70.12	12.26
70.34	19.938
70.56	31.671
70.78	15.904
71	11.448
71.22	26.795
71.44	13.568
71.66	5.702
71.88	18.87
72.1	4.63
72.32	21.508
72.54	43.551
72.76	54.998
72.98	15.088
73.2	1.734
73.42	23.298
73.64	1.363
73.86	15.875
74.08	13.194
74.3	24.927
74.52	15.809
74.74	15.394
74.96	20.531
75.18	22.636
75.4	17.042
75.62	37.33
75.84	12.974
76.06	5.582
76.28	11.119
76.5	26.365
76.72	18.357
76.94	16.601
77.16	12.185
77.38	17.916
77.6	20.346
77.82	23.298
78.04	21.317
78.26	11.038
78.48	18.647
78.7	8.099
78.92	11.285
79.14	4.773
79.36	9.626
79.58	2.001
79.8	4.083
80.02	12.212
80.24	31.34
80.46	1.972
80.68	14.598
80.9	0.843
81.12	9.708
81.34	11.544
81.56	25.21
81.78	12.642
82	18.523
82.22	28.47
82.44	21.481
82.66	22.599
82.88	28.61
83.1	8.108
83.32	23.154
83.54	0.636
83.76	41.74
83.98	39.94
84.2	22.766
84.42	41.932
84.64	30.081
84.86	9.458
85.08	6.915
85.3	19.498
85.52	22.737
85.74	25.202
85.96	30.973
86.18	33.663
86.4	11.973
86.62	2.82
86.84	3.497
87.06	16.32
87.28	32.189
87.5	15.04
87.72	0.19
87.94	39.114
88.16	12.62
88.38	15.126
88.6	10.752
88.82	4.128
89.04	20.21
89.26	22.251
89.48	19.604
89.7	3.112
89.92	4.145
