Measurement: Powder, Xray Data XY Processed
Mineral: Aeschynite-(Y)
Rruff sample: R060312
Ideal chemistry: (Y^3+^,Ca,Th^4+^)(Ti^4+^,Nb^5+^)_2_(O,OH)_6_
Locality: Hittero, Vest-Agder, Norway
Source: Herb Obodda
Description: Black glassy amorphous, note that a fragment of this sample was heated and is posted at R080045
Diffraction sample description: Powder, pattern is consistent with a partially metamic sample of aeschynite-(Ce)
Measured chemistry: (Y_0.66_Th_0.10_Ca_0.08_U_0.07_Fe^3+^_0.07_Nd_0.02_)(Ti_1.50_Nb_0.50_)(O_5.73_(OH)_0.27_)_Σ=6_·4.5H_2_O; trace amounts of Ce, La, Dy; OH estimated by charge balance; H_2_O by difference
x	intensity
5	0
5.22	5.485
5.44	3.194
5.66	8.549
5.88	2.738
6.1	0.925
6.32	3.005
6.54	10.781
6.76	7.222
6.98	0.09
7.2	0.538
7.42	3.385
7.64	0.179
7.86	6.935
8.08	6.551
8.3	0.224
8.52	9.711
8.74	3.087
8.96	4.412
9.18	6.648
9.4	3.744
9.62	7.926
9.84	1.75
10.06	0.578
10.28	4.794
10.5	14.756
10.72	4.566
10.94	1.591
11.16	2.53
11.38	0.523
11.6	2.481
11.82	0.586
12.04	0.587
12.26	5.661
12.48	7.672
12.7	2.83
12.92	0.282
13.14	0.343
13.36	3.656
13.58	7.688
13.8	6.63
14.02	7.711
14.24	1.553
14.46	0.26
14.68	0.541
14.9	1.581
15.12	0.488
15.34	5.505
15.56	7.578
15.78	1.487
16	6.488
16.22	4.31
16.44	7.327
16.66	8.269
16.88	8.424
17.1	0.754
17.32	4.922
17.54	1.306
17.76	0.771
17.98	0.516
18.2	3.464
18.42	6.487
18.64	7.527
18.86	3.38
19.08	3.18
19.3	0.909
19.52	7.901
19.74	1.833
19.96	6.675
20.18	5.642
20.4	0.673
20.62	5.61
20.84	11.362
21.06	0.18
21.28	0.836
21.5	6.934
21.72	1.813
21.94	8.586
22.16	2.567
22.38	6.399
22.6	2.348
22.82	4.31
23.04	2.12
23.26	0.062
23.48	2.256
23.7	7.229
23.92	11.16
24.14	3.881
24.36	0.349
24.58	0.266
24.8	2.951
25.02	14.906
25.24	2.946
25.46	14.84
25.68	2.426
25.9	4.906
26.12	1.56
26.34	3.129
26.56	0.003
26.78	2.75
27	5.676
27.22	2.657
27.44	8.186
27.66	4.401
27.88	0.917
28.1	0.676
28.32	1.173
28.54	0.096
28.76	6.635
28.98	5.829
29.2	7.698
29.42	9.759
29.64	5.291
29.86	0.161
30.08	1.3
30.3	18.116
30.52	4.933
30.74	1.682
30.96	2.454
31.18	2.609
31.4	12.366
31.62	9.439
31.84	10.397
32.06	7.624
32.28	2.768
32.5	5.723
32.72	10.033
32.94	8.285
33.16	16.754
33.38	9.074
33.6	2.188
33.82	8.675
34.04	3.948
34.26	2.917
34.48	0.208
34.7	0.486
34.92	12.791
35.14	4.857
35.36	6.992
35.58	0.986
35.8	4.637
36.02	0.818
36.24	7.233
36.46	2.539
36.68	6.773
36.9	4.073
37.12	2.63
37.34	1.936
37.56	7.234
37.78	0.615
38	1.175
38.22	5.496
38.44	14.338
38.66	8.933
38.88	6.907
39.1	0.752
39.32	3.382
39.54	10.081
39.76	0.422
39.98	9.835
40.2	9.748
40.42	12.658
40.64	5.361
40.86	9.178
41.08	5.162
41.3	0.958
41.52	4.908
41.74	9.659
41.96	9.696
42.18	4.563
42.4	7.084
42.62	6.864
42.84	7.836
43.06	1.719
43.28	1.751
43.5	3.592
43.72	4.485
43.94	3.527
44.16	8.971
44.38	7.912
44.6	7.202
44.82	0.722
45.04	7.351
45.26	7.281
45.48	1.502
45.7	4.851
45.92	3.878
46.14	15.03
46.36	5.844
46.58	15.754
46.8	8.446
47.02	4.106
47.24	14.366
47.46	7.24
47.68	15.937
47.9	8.562
48.12	6.569
48.34	1.647
48.56	3.113
48.78	8.003
49	14.066
49.22	1.033
49.44	5.103
49.66	10.801
49.88	2.841
50.1	2.955
50.32	2.751
50.54	3.696
50.76	4.719
50.98	0.984
51.2	4.48
51.42	0.61
51.64	12.279
51.86	6.572
52.08	4.537
52.3	7.498
52.52	9.547
52.74	2.509
52.96	2.57
53.18	5.467
53.4	2.679
53.62	11.516
53.84	0.388
54.06	10.662
54.28	7.58
54.5	9.714
54.72	9.713
54.94	1.497
55.16	1.526
55.38	12.579
55.6	4.52
55.82	11.609
56.04	3.584
56.26	5.644
56.48	7.579
56.7	13.162
56.92	5.188
57.14	0.716
57.36	10.721
57.58	0.748
57.8	16.688
58.02	6.854
58.24	18.095
58.46	5.723
58.68	7.678
58.9	7.847
59.12	1.139
59.34	3.905
59.56	2.663
59.78	7.301
60	10.363
60.22	6.512
60.44	5.488
60.66	3.264
60.88	0.939
61.1	3.011
61.32	6.339
61.54	6.673
61.76	2.858
61.98	4.909
62.2	4.311
62.42	5.727
62.64	5.605
62.86	7.972
63.08	1.975
63.3	13.963
63.52	3.141
63.74	3.902
63.96	0.527
64.18	9.979
64.4	0.061
64.62	7.999
64.84	0.87
65.06	6.129
65.28	5.837
65.5	5.843
65.72	2.066
65.94	3.053
66.16	5.032
66.38	13.919
66.6	9.034
66.82	3.163
67.04	0.06
67.26	7.968
67.48	8.821
67.7	3.984
67.92	0.953
68.14	3.065
68.36	11.412
68.58	4.505
68.8	4.537
69.02	4.478
69.24	2.643
69.46	8.742
69.68	8.811
69.9	9.726
70.12	9.468
70.34	1.448
70.56	6.545
70.78	0.602
71	5.145
71.22	12.207
71.44	0.849
71.66	5.524
71.88	3.549
72.1	7.758
72.32	2.831
72.54	5.072
72.76	2.818
72.98	0.688
73.2	7.17
73.42	2.214
73.64	3.992
73.86	3.714
74.08	6.253
74.3	0.358
74.52	4.926
74.74	1.296
74.96	4.301
75.18	10.156
75.4	2.255
75.62	4.599
75.84	5.681
76.06	0.238
76.28	4.211
76.5	4.414
76.72	7.315
76.94	5.76
77.16	0.772
77.38	0.918
77.6	12.953
77.82	7.943
78.04	4.999
78.26	2.986
78.48	7
78.7	1.917
78.92	12.848
79.14	3.916
79.36	4.933
79.58	2.539
79.8	6.168
80.02	2.175
80.24	2.057
80.46	1.95
80.68	5.778
80.9	11.522
81.12	4.547
81.34	6.41
81.56	6.314
81.78	4.609
82	0.698
82.22	0.066
82.44	7.761
82.66	0.39
82.88	1.002
83.1	10.073
83.32	5.305
83.54	6.263
83.76	13.408
83.98	9.23
84.2	5.681
84.42	0.151
84.64	7.512
84.86	5.512
85.08	3.834
85.3	8.822
85.52	2.282
85.74	1.283
85.96	2.768
86.18	5.712
86.4	11.737
86.62	1.713
86.84	0.158
87.06	3.941
87.28	4.764
87.5	2.488
87.72	2.575
87.94	4.543
88.16	6.778
88.38	5.482
88.6	3.469
88.82	18.609
89.04	2.678
89.26	0.74
89.48	4.17
89.7	6.947
89.92	7.055
