Measurement: Powder, Xray Data XY Processed
Mineral: Afghanite
Rruff sample: R060422
Ideal chemistry: Na_22_Ca_10_(Si_24_Al_24_)O_96_(S^6+^O_4_)_6_Cl_6_
Locality: Kokscha Valley, Badakshan Province, Afghanistan
Source: Herb Obodda
Description: Blue hexagonal prism with pyramidal termination
Diffraction sample description: Powder
Measured chemistry: (Na_19.94_K_2.06_)_Î£=22_Ca_10.00_[Si_24.00_Al_24.00_O_96_](S_1.00_O_4_)_6_Cl_6.00_
Cell parameters: a: 12.7650(2) b: 12.7650(2) c: 21.4205(6) alpha: 90. beta: 90. gamma: 120. volume: 3022.7(1) crystal system: hexagonal
x	intensity
5	0
5.22	5.273
5.44	8.871
5.66	7.026
5.88	13.869
6.1	8.459
6.32	13.029
6.54	5.969
6.76	8.151
6.98	7.043
7.2	7.599
7.42	11.964
7.64	10.689
7.86	19.146
8.08	8.038
8.3	13.38
8.52	5.036
8.74	6.427
8.96	10.06
9.18	6.377
9.4	3.73
9.62	5.119
9.84	2.312
10.06	0.607
10.28	4.035
10.5	2.309
10.72	2.732
10.94	0.022
11.16	2.235
11.38	9.164
11.6	7.191
11.82	3.33
12.04	3.547
12.26	3.573
12.48	5.534
12.7	2.804
12.92	2.896
13.14	4
13.36	5.051
13.58	3.123
13.8	2.207
14.02	0.138
14.24	6.174
14.46	7.197
14.68	9.337
14.9	8.393
15.12	8.269
15.34	5.213
15.56	3.984
15.78	3.809
16	2.91
16.22	0.058
16.44	5.095
16.66	13.254
16.88	8.262
17.1	5.299
17.32	3.268
17.54	2.178
17.76	2.234
17.98	3.506
18.2	1.508
18.42	46.487
18.64	10.569
18.86	2.363
19.08	1.544
19.3	4.385
19.52	7.423
19.74	4.564
19.96	1.744
20.18	2.279
20.4	6.461
20.62	3.388
20.84	1.708
21.06	1.156
21.28	10.032
21.5	5.036
21.72	44.184
21.94	6.317
22.16	6.058
22.38	54.938
22.6	8.84
22.82	7.734
23.04	3.407
23.26	3.421
23.48	6.284
23.7	2.159
23.92	0.855
24.14	72.838
24.36	29.546
24.58	11.546
24.8	35.572
25.02	2.708
25.24	0.204
25.46	1.96
25.68	5.154
25.9	1.277
26.12	1.648
26.34	5.329
26.56	9.255
26.78	0.4
27	19.371
27.22	88.594
27.44	2.331
27.66	7.454
27.88	1.565
28.1	17.443
28.32	0.512
28.54	0.504
28.76	5.64
28.98	2.125
29.2	2.713
29.42	13.825
29.64	6.631
29.86	0.852
30.08	0.703
30.3	5.222
30.52	1.447
30.74	4.382
30.96	0.319
31.18	1.865
31.4	2.645
31.62	5.443
31.84	21.165
32.06	13.086
32.28	2.972
32.5	27.332
32.72	102.143
32.94	4.101
33.16	1.271
33.38	2.287
33.6	56.446
33.82	24.567
34.04	0.238
34.26	1.054
34.48	4.015
34.7	0.211
34.92	20.461
35.14	14.725
35.36	0.443
35.58	1.426
35.8	3.574
36.02	14.58
36.24	5.585
36.46	5.69
36.68	34.744
36.9	8.602
37.12	2.521
37.34	35.454
37.56	3.473
37.78	4.512
38	0.683
38.22	3.768
38.44	2.806
38.66	9.087
38.88	7.051
39.1	0.407
39.32	8.642
39.54	4.941
39.76	2.924
39.98	3.781
40.2	3.724
40.42	5.602
40.64	5.319
40.86	14.364
41.08	21.946
41.3	2.719
41.52	3.135
41.74	34.638
41.96	5.279
42.18	6.188
42.4	11.062
42.62	82.123
42.84	6.088
43.06	1.291
43.28	1.874
43.5	6.297
43.72	7.633
43.94	1.1
44.16	28.439
44.38	11.631
44.6	5.844
44.82	3.025
45.04	8.227
45.26	2.272
45.48	3.503
45.7	6.585
45.92	6.752
46.14	0.493
46.36	12.442
46.58	1.463
46.8	5.549
47.02	4.729
47.24	12.778
47.46	7.556
47.68	1.438
47.9	1.444
48.12	1.554
48.34	4.409
48.56	7.33
48.78	5.485
49	5.742
49.22	3.435
49.44	7.144
49.66	8.988
49.88	5.908
50.1	4.701
50.32	4.518
50.54	9.293
50.76	3.178
50.98	89.008
51.2	7.915
51.42	3.468
51.64	7.639
51.86	6.928
52.08	18.059
52.3	2.172
52.52	5.622
52.74	5.861
52.96	5.059
53.18	4.461
53.4	27.734
53.62	6.938
53.84	3.031
54.06	0.006
54.28	0.923
54.5	3.124
54.72	6.149
54.94	0.88
55.16	15.807
55.38	9.505
55.6	1.546
55.82	4.552
56.04	27.539
56.26	12.417
56.48	1.338
56.7	3.136
56.92	4.939
57.14	1.987
57.36	5.999
57.58	3.979
57.8	67.027
58.02	10.161
58.24	5.029
58.46	7.867
58.68	5.28
58.9	0.371
59.12	4.51
59.34	5.567
59.56	2.562
59.78	6.492
60	24.459
60.22	8.271
60.44	3.121
60.66	0.067
60.88	0.958
61.1	4.862
61.32	3.099
61.54	8.959
61.76	6.889
61.98	4.767
62.2	2.83
62.42	1.908
62.64	8.894
62.86	1.076
63.08	7.109
63.3	6.203
63.52	18.088
63.74	17.88
63.96	1.062
64.18	7.268
64.4	3.31
64.62	3.686
64.84	4.812
65.06	0.948
65.28	3.953
65.5	3.029
65.72	2.048
65.94	9.075
66.16	8.108
66.38	5.981
66.6	5.967
66.82	3.962
67.04	2.493
67.26	2.357
67.48	4.229
67.7	4.056
67.92	0.985
68.14	0.87
68.36	10.779
68.58	16.091
68.8	6.265
69.02	3.116
69.24	12.049
69.46	10.115
69.68	2.186
69.9	1.736
70.12	2.472
70.34	40.447
70.56	18.577
70.78	2.578
71	2.205
71.22	0.871
71.44	2.307
71.66	2.484
71.88	1.714
72.1	11.763
72.32	6.76
72.54	2.592
72.76	0.392
72.98	1.567
73.2	6.726
73.42	0.659
73.64	5.514
73.86	4.499
74.08	4.554
74.3	2.378
74.52	15.374
74.74	11.493
74.96	4.612
75.18	4.856
75.4	8.031
75.62	9.916
75.84	8.964
76.06	5.01
76.28	0.905
76.5	3.821
76.72	4.824
76.94	11.838
77.16	11.08
77.38	2.08
77.6	6.211
77.82	11.21
78.04	4.206
78.26	1.385
78.48	3.466
78.7	3.526
78.92	4.66
79.14	4.691
79.36	4.738
79.58	6.576
79.8	6.829
80.02	2.58
80.24	6.458
80.46	4.484
80.68	5.486
80.9	1.561
81.12	7.564
81.34	11.6
81.56	6.581
81.78	1.386
82	4.717
82.22	3.571
82.44	5.576
82.66	0.737
82.88	4.836
83.1	1.743
83.32	5.657
83.54	3.593
83.76	7.634
83.98	1.47
84.2	1.466
84.42	8.275
84.64	4.345
84.86	10.413
85.08	4.173
85.3	3.965
85.52	5.897
85.74	2.934
85.96	0.09
86.18	5.726
86.4	7.735
86.62	0.713
86.84	1.972
87.06	1.923
87.28	0.86
87.5	4.137
87.72	3.259
87.94	2.382
88.16	1.404
88.38	3.471
88.6	2.507
88.82	2.544
89.04	4.436
89.26	4.273
89.48	7.153
89.7	15.8
89.92	6.719
