Measurement: Powder, Xray Data XY Processed
Mineral: Agrellite
Rruff sample: R060914
Ideal chemistry: NaCa_2_Si_4_O_10_F
Locality: Kipawa complex, Quebec, Canada
Source: Royal Ontario Museum
Description: White platy aggregates
Diffraction sample description: Powder
Measured chemistry: (Na_0.99_K_0.01_)_Σ=1_(Ca_1.79_Na_0.10_Y_0.04_Ce_0.04_La_0.01_Nd_0.01_Mn_0.01_)_Σ=2_Si_4.00_O_10_F_1.00_
Cell parameters: a: 7.760(1) b: 18.947(1) c: 6.994(3) alpha: 89.8(1) beta: 116.64(2) gamma: 94.30(5) volume: 916.1(4) crystal system: triclinic
x	intensity
5	0
5.22	11.1508
5.44	1.08311
5.66	15.3565
5.88	12.4639
6.1	10.282
6.32	13.2987
6.54	4.52778
6.76	14.8663
6.98	5.76715
7.2	4.22201
7.42	5.5784
7.64	9.11426
7.86	2.29169
8.08	4.68671
8.3	2.9744
8.52	3.40621
8.74	3.63966
8.96	1.80117
9.18	1.74742
9.4	68.2469
9.62	6.31845
9.84	9.75316
10.06	6.87606
10.28	12.9855
10.5	10.2271
10.72	3.39296
10.94	1.23409
11.16	15.7999
11.38	6.16114
11.6	4.17812
11.82	1.79318
12.04	4.70132
12.26	5.34263
12.48	4.23301
12.7	1.16424
12.92	6.91177
13.14	8.93114
13.36	11.6382
13.58	4.72235
13.8	4.33132
14.02	5.38068
14.24	11.5414
14.46	1.66224
14.68	16.6441
14.9	8.68232
15.12	7.75747
15.34	7.90036
15.56	0.2535
15.78	5.42122
16	6.51325
16.22	2.48005
16.44	10.3851
16.66	12.4464
16.88	7.3637
17.1	2.56323
17.32	3.40622
17.54	9.08952
17.76	1.96315
17.98	4.06572
18.2	4.06925
18.42	1.9641
18.64	8.08065
18.86	10.302
19.08	8.19957
19.3	2.55799
19.52	1.57326
19.74	8.58325
19.96	8.69953
20.18	1.77561
20.4	7.82309
20.62	11.1044
20.84	9.09108
21.06	10.3451
21.28	3.16107
21.5	0.746217
21.72	10.7302
21.94	7.32937
22.16	7.06149
22.38	1.77748
22.6	0.520704
22.82	2.72236
23.04	13.8912
23.26	41.6123
23.48	10.2877
23.7	16.7264
23.92	23.9596
24.14	9.64176
24.36	5.60502
24.58	0.408007
24.8	9.17438
25.02	3.85611
25.24	6.6391
25.46	13.1847
25.68	21.5718
25.9	59.362
26.12	4.47464
26.34	13.4632
26.56	13.6819
26.78	103.859
27	6.0496
27.22	7.22198
27.44	14.4309
27.66	4.41742
27.88	101.805
28.1	20.3088
28.32	92.0266
28.54	1.24644
28.76	5.9864
28.98	9.80232
29.2	24.7622
29.42	0.850853
29.64	5.8863
29.86	30.6204
30.08	9.12309
30.3	6.60386
30.52	21.1278
30.74	10.0034
30.96	3.44743
31.18	9.03515
31.4	12.1183
31.62	6.85609
31.84	1.15311
32.06	15.2002
32.28	4.02284
32.5	3.00032
32.72	3.06732
32.94	2.8343
33.16	2.19037
33.38	22.7737
33.6	7.43453
33.82	26.3532
34.04	0.547079
34.26	11.8457
34.48	0.246344
34.7	66.0743
34.92	16.5382
35.14	16.4811
35.36	3.17689
35.58	7.09465
35.8	0.863898
36.02	7.2356
36.24	0.903362
36.46	9.20935
36.68	9.53204
36.9	6.92975
37.12	8.86344
37.34	10.6775
37.56	8.18782
37.78	7.91632
38	2.28598
38.22	8.44088
38.44	8.78428
38.66	10.1934
38.88	9.84907
39.1	24.3197
39.32	9.0479
39.54	2.86662
39.76	63.9957
39.98	12.7901
40.2	0.223299
40.42	8.04971
40.64	1.47199
40.86	5.00591
41.08	22.0508
41.3	5.24459
41.52	4.30687
41.74	3.12678
41.96	1.99628
42.18	5.26098
42.4	4.33563
42.62	5.56029
42.84	18.1889
43.06	10.0051
43.28	3.0401
43.5	10.0789
43.72	0.851231
43.94	3.09478
44.16	11.2007
44.38	25.4532
44.6	6.65926
44.82	2.78136
45.04	8.16397
45.26	14.3379
45.48	11.5972
45.7	13.9535
45.92	5.06506
46.14	2.07468
46.36	3.86166
46.58	3.92806
46.8	2.87444
47.02	8.52928
47.24	7.30499
47.46	0.002419
47.68	7.27731
47.9	55.2832
48.12	10.4241
48.34	0.857129
48.56	5.56041
48.78	6.13869
49	7.24699
49.22	6.59066
49.44	9.40384
49.66	14.5932
49.88	5.76476
50.1	5.63259
50.32	2.08621
50.54	7.98778
50.76	0.427976
50.98	10.9896
51.2	7.85979
51.42	4.75409
51.64	10.7631
51.86	12.1543
52.08	1.99883
52.3	3.17638
52.52	4.41895
52.74	0.917229
52.96	51.8286
53.18	4.82455
53.4	1.87732
53.62	6.92892
53.84	3.17072
54.06	8.08502
54.28	15.6657
54.5	8.20083
54.72	4.78566
54.94	1.07393
55.16	4.30497
55.38	6.58408
55.6	8.98745
55.82	8.15579
56.04	4.29042
56.26	15.6188
56.48	5.94909
56.7	10.5942
56.92	7.62683
57.14	2.73687
57.36	4.76631
57.58	12.7847
57.8	7.75137
58.02	1.40691
58.24	9.89852
58.46	3.85792
58.68	7.67031
58.9	12.5206
59.12	5.6155
59.34	5.89662
59.56	12.8788
59.78	2.76711
60	2.81789
60.22	5.85122
60.44	8.2581
60.66	7.94503
60.88	5.98225
61.1	1.9144
61.32	4.19475
61.54	9.01898
61.76	5.6838
61.98	5.67981
62.2	10.8717
62.42	8.26479
62.64	11.2426
62.86	12.9962
63.08	10.968
63.3	1.85886
63.52	7.67404
63.74	3.48265
63.96	1.46819
64.18	11.596
64.4	29.68
64.62	12.7138
64.84	2.77447
65.06	6.26815
65.28	4.14665
65.5	6.33491
65.72	4.37391
65.94	7.38843
66.16	9.47484
66.38	8.35253
66.6	1.88102
66.82	6.05087
67.04	2.62676
67.26	0.730128
67.48	7.77808
67.7	0.887358
67.92	3.16229
68.14	3.5869
68.36	7.81737
68.58	0.880407
68.8	3.18042
69.02	1.59502
69.24	5.49205
69.46	7.62006
69.68	3.74786
69.9	8.94052
70.12	4.83074
70.34	0.926717
70.56	22.6281
70.78	1.74409
71	3.94898
71.22	2.88797
71.44	6.08234
71.66	5.10326
71.88	5.14259
72.1	2.84078
72.32	11.134
72.54	3.11577
72.76	11.1079
72.98	9.16881
73.2	12.0606
73.42	3.98348
73.64	2.03567
73.86	0.161262
74.08	10.9436
74.3	9.93028
74.52	1.95112
74.74	4.95449
74.96	6.02377
75.18	8.93068
75.4	5.97291
75.62	10.4526
75.84	1.5448
76.06	10.6745
76.28	2.75107
76.5	5.6849
76.72	3.96483
76.94	20.8913
77.16	5.83627
77.38	2.71988
77.6	6.69374
77.82	1.59785
78.04	5.20369
78.26	2.98013
78.48	4.78965
78.7	5.01452
78.92	7.93075
79.14	3.08638
79.36	10.1716
79.58	3.22158
79.8	4.33981
80.02	2.41649
80.24	1.77238
80.46	6.96084
80.68	4.06
80.9	8.06046
81.12	5.17717
81.34	6.09241
81.56	3.102
81.78	4.2016
82	2.8865
82.22	7.07141
82.44	3.17694
82.66	5.82644
82.88	8.66685
83.1	3.58033
83.32	6.41291
83.54	7.52092
83.76	7.43725
83.98	10.4232
84.2	7.46461
84.42	2.44623
84.64	5.338
84.86	12.4375
85.08	6.4836
85.3	6.39453
85.52	6.46311
85.74	6.36935
85.96	6.93679
86.18	0.828325
86.4	13.7308
86.62	8.43406
86.84	7.37487
87.06	13.2921
87.28	6.99254
87.5	0.247808
87.72	11.6115
87.94	1.59772
88.16	3.70858
88.38	0.995481
88.6	7.1357
88.82	1.05229
89.04	14.3781
89.26	0.558421
89.48	5.90314
89.7	9.93937
89.92	0.564569
