Measurement: Powder, Xray Data XY Processed
Mineral: Albite
Rruff sample: R070268
Ideal chemistry: NaAlSi_3_O_8_
Locality: Kitty Hawk, North Carolina, USA
Source: Michael Scott
Description: White cleavage fragment showing polysynthetic twinning, associated with smoky quartz. Variety oligoclase.
Diffraction sample description: Powder
Measured chemistry: Na_0.77_Ca_0.22_Al_1.22_Si_2.78_O_8_
Cell parameters: a: 8.1615(4) b: 12.8396(3) c: 7.1332(2) alpha: 93.850(4) beta: 116.450(3) gamma: 89.017(3) volume: 667.66(3) crystal system: triclinic
x	intensity
5	0
5.22	10.0538
5.44	12.8728
5.66	2.59491
5.88	5.71657
6.1	23.4369
6.32	17.8496
6.54	15.5508
6.76	0.589184
6.98	4.28608
7.2	3.09653
7.42	13.4648
7.64	8.2172
7.86	12.9274
8.08	4.498
8.3	6.84817
8.52	3.36237
8.74	3.89145
8.96	9.93782
9.18	3.05964
9.4	9.29372
9.62	6.54847
9.84	8.4683
10.06	10.616
10.28	5.79605
10.5	7.98145
10.72	3.14344
10.94	0.708774
11.16	0.170684
11.38	4.16977
11.6	6.41385
11.82	2.53641
12.04	4.53986
12.26	1.30426
12.48	0.300799
12.7	4.27944
12.92	4.22202
13.14	3.25218
13.36	16.3042
13.58	14.2405
13.8	34.6507
14.02	14.3696
14.24	0.798437
14.46	0.940095
14.68	1.03362
14.9	12.1195
15.12	23.1934
15.34	8.25506
15.56	4.06606
15.78	17.2431
16	4.90007
16.22	2.50847
16.44	12.3979
16.66	11.4659
16.88	16.4255
17.1	6.44401
17.32	6.3663
17.54	3.04134
17.76	12.0093
17.98	8.81189
18.2	5.88734
18.42	9.94933
18.64	5.99856
18.86	4.06685
19.08	6.95847
19.3	4.23012
19.52	11.1819
19.74	6.27897
19.96	8.21462
20.18	5.40617
20.4	0.596347
20.62	12.1182
20.84	2.81789
21.06	4.54723
21.28	2.37356
21.5	0.588789
21.72	4.30987
21.94	36.7213
22.16	20.649
22.38	13.2653
22.6	6.57343
22.82	7.99878
23.04	83.614
23.26	12.2931
23.48	18.412
23.7	193.749
23.92	38.7687
24.14	31.6537
24.36	172.67
24.58	9.2763
24.8	7.74906
25.02	3.75472
25.24	36.9909
25.46	16.8627
25.68	14.8777
25.9	2.95994
26.12	2.93508
26.34	2.26277
26.56	20.5596
26.78	10.9061
27	3.73158
27.22	12.0081
27.44	16.6074
27.66	34.277
27.88	837.094
28.1	957.055
28.32	214.269
28.54	9.40796
28.76	4.66594
28.98	0.99741
29.2	6.31395
29.42	5.47353
29.64	11.6162
29.86	158.268
30.08	8.47234
30.3	23.6102
30.52	166.162
30.74	12.8225
30.96	10.1401
31.18	1.6927
31.4	193.605
31.62	39.821
31.84	5.69465
32.06	6.77028
32.28	2.11113
32.5	10.7448
32.72	1.57674
32.94	13.9208
33.16	8.55298
33.38	15.4229
33.6	2.29263
33.82	31.5205
34.04	7.76406
34.26	8.22037
34.48	2.66266
34.7	2.76067
34.92	3.39866
35.14	7.79719
35.36	41.269
35.58	24.5474
35.8	12.7598
36.02	4.2656
36.24	46.3674
36.46	1.38477
36.68	15.6786
36.9	4.37018
37.12	25.9716
37.34	17.4679
37.56	28.0026
37.78	14.8162
38	0.755743
38.22	3.21186
38.44	9.01057
38.66	14.6072
38.88	3.14453
39.1	31.0841
39.32	4.30928
39.54	11.5038
39.76	15.4017
39.98	1.63241
40.2	7.86733
40.42	3.13339
40.64	1.5505
40.86	29.2894
41.08	16.2558
41.3	11.6896
41.52	6.54317
41.74	7.36183
41.96	6.97648
42.18	0.801105
42.4	37.6893
42.62	14.2654
42.84	86.5662
43.06	54.3798
43.28	10.4448
43.5	14.9103
43.72	5.79518
43.94	9.18529
44.16	8.41279
44.38	3.45733
44.6	5.48544
44.82	7.38572
45.04	9.72815
45.26	14.594
45.48	18.4541
45.7	45.6224
45.92	17.1088
46.14	6.19517
46.36	20.4385
46.58	2.50492
46.8	10.5229
47.02	20.8112
47.24	0.038827
47.46	12.9824
47.68	14.4416
47.9	2.62688
48.12	3.09071
48.34	51.865
48.56	14.8472
48.78	1.4477
49	7.20641
49.22	42.7358
49.44	0.716457
49.66	7.48806
49.88	71.3962
50.1	26.8607
50.32	0.791161
50.54	3.96468
50.76	84.5338
50.98	2.04948
51.2	11.0523
51.42	35.9308
51.64	3.38899
51.86	3.37664
52.08	0.572651
52.3	18.3803
52.52	7.56516
52.74	37.045
52.96	23.2446
53.18	26.8281
53.4	18.4246
53.62	4.9544
53.84	10.4926
54.06	7.78343
54.28	16.0187
54.5	10.5635
54.72	2.95735
54.94	0.244055
55.16	6.12871
55.38	7.24659
55.6	7.53324
55.82	0.951115
56.04	0.8075
56.26	1.17042
56.48	1.21363
56.7	0.277715
56.92	1.08336
57.14	3.44643
57.36	4.23249
57.58	34.1459
57.8	9.83662
58.02	26.1691
58.24	8.93288
58.46	31.3985
58.68	18.428
58.9	15.6956
59.12	3.80997
59.34	9.72083
59.56	14.3724
59.78	10.405
60	9.50123
60.22	8.62418
60.44	12.2555
60.66	4.2675
60.88	7.18723
61.1	1.00788
61.32	7.6255
61.54	0.107745
61.76	14.2651
61.98	4.99005
62.2	14.9087
62.42	10.7787
62.64	2.4083
62.86	2.36211
63.08	11.3279
63.3	4.51272
63.52	7.52563
63.74	36.5528
63.96	33.1837
64.18	5.79439
64.4	8.91938
64.62	0.965719
64.84	3.55138
65.06	30.3992
65.28	19.2621
65.5	21.4675
65.72	7.16604
65.94	5.99214
66.16	27.8114
66.38	21.5598
66.6	9.48753
66.82	14.0762
67.04	3.82419
67.26	3.91194
67.48	6.99778
67.7	3.89334
67.92	0.333853
68.14	4.99984
68.36	8.03014
68.58	1.11771
68.8	6.21699
69.02	8.42015
69.24	12.9765
69.46	22.1075
69.68	15.889
69.9	60.096
70.12	21.5628
70.34	6.17424
70.56	2.76957
70.78	7.62413
71	7.11574
71.22	10.5357
71.44	24.7414
71.66	13.3996
71.88	8.88335
72.1	3.82561
72.32	4.87877
72.54	5.97242
72.76	7.8826
72.98	15.5928
73.2	7.93741
73.42	10.5591
73.64	3.19319
73.86	7.69429
74.08	7.19058
74.3	6.9625
74.52	5.02867
74.74	8.86775
74.96	24.7192
75.18	5.73497
75.4	1.62333
75.62	6.61221
75.84	5.82637
76.06	9.06827
76.28	3.468
76.5	0.754624
76.72	1.00512
76.94	13.0917
77.16	13.1522
77.38	11.087
77.6	11.1069
77.82	7.59745
78.04	7.40991
78.26	43.3749
78.48	33.7086
78.7	8.61582
78.92	9.52601
79.14	5.42671
79.36	8.61778
79.58	8.0828
79.8	5.26575
80.02	2.71862
80.24	4.04574
80.46	11.2147
80.68	5.35823
80.9	15.162
81.12	5.393
81.34	12.1391
81.56	0.778275
81.78	12.6578
82	11.5295
82.22	6.34735
82.44	11.8833
82.66	14.6718
82.88	8.65166
83.1	10.7115
83.32	31.5664
83.54	22.2817
83.76	1.73281
83.98	5.50049
84.2	12.8906
84.42	20.6432
84.64	9.73077
84.86	9.87152
85.08	1.87576
85.3	3.0882
85.52	6.32077
85.74	3.51437
85.96	7.93656
86.18	7.07806
86.4	4.13722
86.62	10.2884
86.84	9.56587
87.06	6.81749
87.28	7.1024
87.5	9.14673
87.72	10.1356
87.94	11.9833
88.16	16.9414
88.38	11.8463
88.6	8.87515
88.82	9.606
89.04	0.361877
89.26	4.10486
89.48	5.06669
89.7	8.86954
89.92	12.1734
