Measurement: Powder, Xray Data XY Processed
Mineral: Albite
Rruff sample: R040129
Ideal chemistry: NaAlSi_3_O_8_
Locality: LaChance Quarry, Brunswick, Cumberland County, Maine, USA
Source: Bob Downs
Description: Colorless fragment of a tabular single crystal. Characterized in the study by Che and Zega (2023)
Diffraction sample description: Powder
Measured chemistry: (Na_0.99_K_0.01_)Al_1.00_Si_3.00_O_8_
Cell parameters: a: 8.1393(6) b: 12.7844(7) c: 7.1592(2) alpha: 94.262(6) beta: 116.612(3) gamma: 87.647(6) volume: 664.17(5) crystal system: triclinic
x	intensity
5	0
5.22	5.39671
5.44	5.9675
5.66	6.68061
5.88	18.605
6.1	20.1136
6.32	16.5446
6.54	0.433519
6.76	12.5742
6.98	16.6913
7.2	2.86224
7.42	3.78917
7.64	0.259892
7.86	12.0308
8.08	0.397336
8.3	5.01433
8.52	7.42319
8.74	7.66233
8.96	0.99188
9.18	5.06926
9.4	8.202
9.62	2.29182
9.84	4.56553
10.06	7.14689
10.28	11.4443
10.5	12.7209
10.72	10.6265
10.94	2.2838
11.16	2.86763
11.38	2.9453
11.6	0.842635
11.82	3.86673
12.04	9.846
12.26	6.57155
12.48	3.16301
12.7	12.0006
12.92	8.63944
13.14	0.414706
13.36	4.54416
13.58	16.4795
13.8	35.2332
14.02	38.1322
14.24	15.0797
14.46	12.887
14.68	6.90928
14.9	9.87954
15.12	8.95332
15.34	4.05385
15.56	13.3396
15.78	12.301
16	4.48988
16.22	14.7196
16.44	6.03079
16.66	8.32162
16.88	3.59555
17.1	3.87779
17.32	7.10705
17.54	8.29125
17.76	2.45892
17.98	6.50932
18.2	5.34449
18.42	1.12935
18.64	2.22984
18.86	3.13601
19.08	8.97694
19.3	4.22552
19.52	8.05217
19.74	11.9306
19.96	8.7619
20.18	5.37664
20.4	9.04558
20.62	1.5791
20.84	3.98364
21.06	7.28687
21.28	10.5255
21.5	0.432081
21.72	11.9982
21.94	42.3203
22.16	207.56
22.38	7.1402
22.6	1.41725
22.82	3.03128
23.04	26.5893
23.26	6.19866
23.48	46.8907
23.7	29.3009
23.92	12.4324
24.14	83.6343
24.36	311.655
24.58	14.334
24.8	4.11035
25.02	10.7111
25.24	15.6568
25.46	70.8057
25.68	27.1454
25.9	6.48256
26.12	4.39503
26.34	4.52296
26.56	17.1671
26.78	8.85548
27	15.4999
27.22	8.79064
27.44	14.8482
27.66	46.8437
27.88	300.466
28.1	379.728
28.32	163.22
28.54	21.9181
28.76	3.47101
28.98	2.13134
29.2	1.84273
29.42	1.37472
29.64	7.57074
29.86	6.83494
30.08	19.8525
30.3	72.3683
30.52	140.819
30.74	20.981
30.96	4.88737
31.18	34.4942
31.4	16.3021
31.62	16.2088
31.84	0.962048
32.06	9.75046
32.28	6.28608
32.5	9.94573
32.72	0.570973
32.94	1.26463
33.16	5.10055
33.38	9.68393
33.6	7.46041
33.82	9.15648
34.04	39.6846
34.26	2.35701
34.48	3.41261
34.7	10.187
34.92	4.79302
35.14	41.6007
35.36	21.4835
35.58	2.89364
35.8	4.18305
36.02	9.99425
36.24	8.87983
36.46	2.89704
36.68	6.91558
36.9	33.3787
37.12	11.139
37.34	26.5583
37.56	17.8243
37.78	13.1277
38	4.40333
38.22	3.46844
38.44	1.72307
38.66	10.9791
38.88	36.607
39.1	11.7754
39.32	9.02822
39.54	18.5509
39.76	5.53241
39.98	0.260919
40.2	7.53615
40.42	13.2221
40.64	4.79355
40.86	0.674048
41.08	6.86109
41.3	20.2583
41.52	7.08668
41.74	3.96841
41.96	5.19717
42.18	1.05778
42.4	5.72371
42.62	35.7465
42.84	7.10369
43.06	7.44146
43.28	26.7189
43.5	8.35176
43.72	114.669
43.94	0.329385
44.16	0.307196
44.38	2.28622
44.6	3.17279
44.82	5.09373
45.04	2.99946
45.26	11.5543
45.48	22.367
45.7	12.4994
45.92	20.6011
46.14	20.5526
46.36	0.283326
46.58	4.41442
46.8	4.58538
47.02	0.346303
47.24	18.6417
47.46	3.95267
47.68	1.90031
47.9	6.90455
48.12	70.0111
48.34	19.4256
48.56	5.82713
48.78	5.05865
49	1.30318
49.22	32.9183
49.44	19.32
49.66	6.76814
49.88	24.2956
50.1	62.2966
50.32	13.1956
50.54	18.4434
50.76	48.9171
50.98	7.41194
51.2	25.9019
51.42	2.66952
51.64	3.60522
51.86	7.1395
52.08	2.97589
52.3	3.22162
52.52	13.8983
52.74	10.311
52.96	2.61413
53.18	20.7216
53.4	19.8174
53.62	0.067403
53.84	0.75988
54.06	2.15748
54.28	9.25507
54.5	17.6253
54.72	7.40832
54.94	16.4505
55.16	18.5985
55.38	0.088613
55.6	6.54418
55.82	7.99063
56.04	2.34538
56.26	1.8663
56.48	0.947756
56.7	5.82119
56.92	1.57273
57.14	1.86525
57.36	7.53369
57.58	6.14604
57.8	6.62115
58.02	12.1861
58.24	9.74553
58.46	3.52693
58.68	11.3686
58.9	8.64815
59.12	9.84065
59.34	6.89949
59.56	9.04387
59.78	2.14345
60	13.5897
60.22	2.82198
60.44	7.88008
60.66	6.93487
60.88	6.56804
61.1	5.00977
61.32	13.2984
61.54	12.4835
61.76	14.4674
61.98	9.06007
62.2	8.16251
62.42	6.74517
62.64	6.44404
62.86	5.23156
63.08	6.96203
63.3	8.55713
63.52	21.9227
63.74	21.0857
63.96	17.2266
64.18	11.8161
64.4	6.79754
64.62	7.36777
64.84	10.2547
65.06	12.136
65.28	21.1407
65.5	77.6195
65.72	18.2902
65.94	14.4265
66.16	13.7445
66.38	5.35969
66.6	0.249342
66.82	5.06025
67.04	14.1634
67.26	6.4385
67.48	5.13387
67.7	5.10144
67.92	14.7857
68.14	13.1227
68.36	7.74362
68.58	1.67411
68.8	6.27514
69.02	16.1244
69.24	7.46003
69.46	11.7616
69.68	33.6993
69.9	17.2235
70.12	23.4512
70.34	0.524565
70.56	3.69771
70.78	2.16619
71	21.8215
71.22	8.50559
71.44	5.88147
71.66	4.06329
71.88	2.44491
72.1	2.6693
72.32	2.20697
72.54	0.871733
72.76	9.76569
72.98	2.63233
73.2	7.22864
73.42	21.7478
73.64	9.17863
73.86	6.89419
74.08	4.56084
74.3	12.9909
74.52	2.9175
74.74	16.0591
74.96	20.3335
75.18	6.71277
75.4	8.99767
75.62	7.20697
75.84	11.4399
76.06	6.12887
76.28	5.59782
76.5	6.72736
76.72	10.8675
76.94	5.90517
77.16	2.73778
77.38	1.84598
77.6	13.6869
77.82	11.5591
78.04	10.6553
78.26	15.7614
78.48	13.3002
78.7	7.1589
78.92	4.28257
79.14	6.41783
79.36	1.77489
79.58	2.16798
79.8	2.13171
80.02	17.7136
80.24	6.93873
80.46	4.27061
80.68	5.28564
80.9	5.26099
81.12	5.31617
81.34	5.41719
81.56	2.41291
81.78	16.145
82	12.9453
82.22	11.8735
82.44	7.5653
82.66	6.75617
82.88	5.51356
83.1	5.03405
83.32	4.06209
83.54	4.09418
83.76	9.00538
83.98	5.01698
84.2	3.05775
84.42	14.1083
84.64	7.03931
84.86	6.97119
85.08	10.8359
85.3	19.0645
85.52	8.69933
85.74	5.93677
85.96	3.02138
86.18	8.15038
86.4	4.39007
86.62	4.5006
86.84	5.61203
87.06	10.8945
87.28	1.8895
87.5	3.08443
87.72	5.01807
87.94	0.710884
88.16	4.32341
88.38	1.6132
88.6	5.828
88.82	0.928857
89.04	9.19589
89.26	2.40487
89.48	7.66492
89.7	1.64144
89.92	8.3507
