Measurement: Powder, Xray Data XY Processed
Mineral: Albite
Rruff sample: R060054
Ideal chemistry: NaAlSi_3_O_8_
Locality: Mt. Erebus, Antarctica
Source: Marcus Origlieri
Description: Dark gray bladed crystal
Diffraction sample description: Powder
Measured chemistry: (Na_0.67_K_0.18_Ca_0.15_)_Σ=1_Al_1.00_(Si_2.85_Al_0.15_)_Σ=3_O_8_
Cell parameters: a: 8.235(2) b: 12.9316(9) c: 7.1343(4) alpha: 92.47(1) beta: 116.30(1) gamma: 90.25(1) volume: 680.2(1) crystal system: triclinic
x	intensity
5	0
5.22	6.491
5.44	2.314
5.66	16.467
5.88	18.034
6.1	12.799
6.32	21.174
6.54	10.18
6.76	3.133
6.98	2.992
7.2	9.095
7.42	2.257
7.64	11.324
7.86	6.22
8.08	10.114
8.3	17.03
8.52	11.414
8.74	5.851
8.96	9.087
9.18	2.018
9.4	5.157
9.62	1.149
9.84	6.118
10.06	17.252
10.28	9.176
10.5	4.912
10.72	9.966
10.94	5.989
11.16	4.012
11.38	2.976
11.6	0.521
11.82	6.811
12.04	11.91
12.26	2.846
12.48	1.096
12.7	6.226
12.92	1.169
13.14	2.162
13.36	0.319
13.58	17.312
13.8	27.554
14.02	3.01
14.24	4.81
14.46	3.811
14.68	9.029
14.9	3.795
15.12	4.818
15.34	5.071
15.56	11.347
15.78	9.603
16	0.725
16.22	4.642
16.44	2.176
16.66	5.107
16.88	7.195
17.1	6.119
17.32	5.078
17.54	5.064
17.76	6.034
17.98	2.557
18.2	3.587
18.42	13.68
18.64	7.576
18.86	5.275
19.08	20.463
19.3	12.348
19.52	0.578
19.74	8.818
19.96	3.814
20.18	6.613
20.4	6.899
20.62	5.312
20.84	5.131
21.06	1.957
21.28	6.855
21.5	0.593
21.72	6.093
21.94	30.625
22.16	5.891
22.38	1.307
22.6	2.711
22.82	31.943
23.04	1.579
23.26	5.978
23.48	79.519
23.7	142.164
23.92	14.127
24.14	22.818
24.36	25.352
24.58	24.392
24.8	1.55
25.02	7.786
25.24	22.839
25.46	0.204
25.68	56.176
25.9	9.364
26.12	3.488
26.34	21.143
26.56	7.209
26.78	10.335
27	2.204
27.22	1.931
27.44	21.319
27.66	444.554
27.88	93.788
28.1	56.964
28.32	26.075
28.54	6.93
28.76	10.763
28.98	2.726
29.2	2.344
29.42	3.401
29.64	20.09
29.86	5.306
30.08	2.782
30.3	6.551
30.52	33.926
30.74	23.608
30.96	10.774
31.18	47.112
31.4	1.156
31.62	11.006
31.84	12.843
32.06	9.761
32.28	1.426
32.5	1.473
32.72	0.737
32.94	7.019
33.16	11.575
33.38	28.148
33.6	7.73
33.82	1.206
34.04	5.148
34.26	3.948
34.48	5.703
34.7	0.496
34.92	0.7
35.14	7.107
35.36	17.634
35.58	69.296
35.8	7.916
36.02	9.284
36.24	2.047
36.46	7.784
36.68	7.798
36.9	1.911
37.12	8.537
37.34	5.523
37.56	17.747
37.78	10.005
38	10.4
38.22	3.409
38.44	1.789
38.66	1.607
38.88	10.508
39.1	11.578
39.32	5.574
39.54	12.168
39.76	5.244
39.98	8.986
40.2	3.756
40.42	2.112
40.64	11.124
40.86	1.999
41.08	2.513
41.3	0.434
41.52	10.474
41.74	11.407
41.96	56.709
42.18	11.816
42.4	13.017
42.62	26.324
42.84	16.007
43.06	1.801
43.28	4.779
43.5	7.722
43.72	1.913
43.94	2.78
44.16	11.616
44.38	4.44
44.6	6.25
44.82	6.981
45.04	12.914
45.26	12.263
45.48	5.488
45.7	3.605
45.92	3.787
46.14	1.723
46.36	3.199
46.58	8.705
46.8	27.6
47.02	13.568
47.24	7.571
47.46	0.252
47.68	12.066
47.9	10.593
48.12	6.521
48.34	9.022
48.56	4.363
48.78	8.771
49	9.952
49.22	2.481
49.44	10.112
49.66	14.849
49.88	9.501
50.1	9.959
50.32	15.924
50.54	7.646
50.76	7.116
50.98	0.77
51.2	25.399
51.42	26.496
51.64	9.634
51.86	7.959
52.08	1.962
52.3	3.289
52.52	17.894
52.74	13.117
52.96	1.235
53.18	9.581
53.4	2.867
53.62	3.341
53.84	4.718
54.06	7.1
54.28	3.915
54.5	3.239
54.72	9.692
54.94	11.71
55.16	9.131
55.38	1.091
55.6	5.973
55.82	8.872
56.04	9.756
56.26	1.871
56.48	5.757
56.7	5.019
56.92	5.995
57.14	7.049
57.36	10.056
57.58	3.748
57.8	6.692
58.02	0.304
58.24	11.696
58.46	5.615
58.68	3.77
58.9	13.188
59.12	9.241
59.34	4.059
59.56	12.949
59.78	6.888
60	0.252
60.22	5.505
60.44	15.623
60.66	13.48
60.88	1.217
61.1	2.717
61.32	6.269
61.54	8.955
61.76	17.755
61.98	11.49
62.2	13.083
62.42	1.59
62.64	14.179
62.86	8.146
63.08	8.832
63.3	1.988
63.52	2.336
63.74	1.576
63.96	3.875
64.18	4.126
64.4	1.742
64.62	7.877
64.84	15.936
65.06	19.145
65.28	4.878
65.5	7.406
65.72	12.305
65.94	10.068
66.16	10.072
66.38	6.061
66.6	2.747
66.82	6.233
67.04	0.297
67.26	10.182
67.48	5.926
67.7	5.039
67.92	17.104
68.14	1.114
68.36	9.905
68.58	6.826
68.8	3.769
69.02	1.999
69.24	6.403
69.46	6.445
69.68	15.08
69.9	2.256
70.12	6.202
70.34	8.355
70.56	3.536
70.78	0.285
71	13.834
71.22	3.001
71.44	19.2
71.66	9.259
71.88	11.341
72.1	7.292
72.32	5.214
72.54	0.868
72.76	11.06
72.98	2.903
73.2	9.777
73.42	9.586
73.64	8.267
73.86	1.886
74.08	1.38
74.3	5.264
74.52	4.018
74.74	6.149
74.96	2.412
75.18	14.556
75.4	1.074
75.62	10.247
75.84	10.541
76.06	0.059
76.28	1.108
76.5	9.284
76.72	0.646
76.94	5.195
77.16	0.538
77.38	12.284
77.6	12.572
77.82	9.233
78.04	3.238
78.26	7.205
78.48	2.075
78.7	1.763
78.92	2.737
79.14	6.971
79.36	11.336
79.58	3.24
79.8	3.493
80.02	1.239
80.24	2.348
80.46	5.319
80.68	5.282
80.9	3.225
81.12	4.412
81.34	4.867
81.56	10.588
81.78	8.197
82	5.992
82.22	4.785
82.44	5.702
82.66	11.617
82.88	7.585
83.1	4.613
83.32	1.659
83.54	9.476
83.76	8.017
83.98	4.35
84.2	9.672
84.42	3.797
84.64	7.116
84.86	3.03
85.08	3.096
85.3	3.134
85.52	2.075
85.74	1.917
85.96	9.089
86.18	8.712
86.4	1.613
86.62	5.635
86.84	6.753
87.06	7.942
87.28	4.317
87.5	10.552
87.72	2.912
87.94	7.264
88.16	3.488
88.38	2.647
88.6	8.988
88.82	4.814
89.04	14.706
89.26	2.575
89.48	5.41
89.7	9.849
89.92	3.082
