Measurement: Powder, Xray Data XY Processed
Mineral: Allanite-(Ce)
Rruff sample: R080044
Ideal chemistry: CaCeAl_2_Fe^2+^(Si_2_O_7_)(SiO_4_)O(OH)
Locality: Aquarius Range, Mohave County, Arizona, USA
Source: John Weber
Description: Dark brown fragment from metamict sample R060418, after heating at T = 850 C for 18 hours
Diffraction sample description: Powder
Cell parameters: a: 8.919(1) b: 5.6724(6) c: 10.371(2) alpha: 90 beta: 115.68(1) gamma: 90 volume: 472.90(8) crystal system: monoclinic
x	intensity
5	0
5.22	4.6937
5.44	10.8011
5.66	19.6537
5.88	14.1452
6.1	15.9355
6.32	1.88978
6.54	25.0332
6.76	13.5326
6.98	17.6306
7.2	33.0955
7.42	5.77437
7.64	17.0524
7.86	20.5272
8.08	6.99554
8.3	7.25267
8.52	6.68192
8.74	7.80597
8.96	0.382599
9.18	6.40483
9.4	33.5245
9.62	11.6905
9.84	8.24882
10.06	2.68539
10.28	1.86109
10.5	3.5305
10.72	10.9
10.94	22.1369
11.16	12.3664
11.38	0.704079
11.6	1.7974
11.82	23.7622
12.04	7.51945
12.26	18.1469
12.48	18.1097
12.7	30.0697
12.92	35.9869
13.14	27.1104
13.36	15.8552
13.58	7.54953
13.8	19.415
14.02	8.14628
14.24	17.7378
14.46	19.2829
14.68	23.1159
14.9	3.07732
15.12	10.9296
15.34	3.57652
15.56	16.2424
15.78	20.7654
16	21.1208
16.22	15.3164
16.44	19.0064
16.66	23.4627
16.88	9.98434
17.1	25.0802
17.32	11.8768
17.54	11.5261
17.76	0.613693
17.98	23.6493
18.2	14.7763
18.42	11.5504
18.64	11.0677
18.86	33.6915
19.08	32.6272
19.3	10.3607
19.52	21.1826
19.74	4.77027
19.96	6.19121
20.18	13.1638
20.4	17.5733
20.62	13.5124
20.84	30.1667
21.06	7.39629
21.28	9.69176
21.5	9.80084
21.72	7.10858
21.94	14.5745
22.16	20.8439
22.38	20.0659
22.6	1.07934
22.82	0.270416
23.04	4.46556
23.26	10.075
23.48	10.9902
23.7	12.0608
23.92	6.49289
24.14	15.8957
24.36	0.167221
24.58	2.86577
24.8	11.909
25.02	15.596
25.24	8.12783
25.46	31.1491
25.68	7.93222
25.9	13.1609
26.12	0.330078
26.34	4.97129
26.56	0.610264
26.78	12.1611
27	5.61085
27.22	16.8814
27.44	19.6925
27.66	13.3907
27.88	36.9505
28.1	15.913
28.32	23.6433
28.54	2.91177
28.76	3.7668
28.98	25.2633
29.2	11.4906
29.42	23.2421
29.64	15.2153
29.86	16.78
30.08	19.932
30.3	70.5915
30.52	46.7647
30.74	8.62057
30.96	8.29635
31.18	16.1683
31.4	0.088657
31.62	29.4898
31.84	12.0922
32.06	18.7123
32.28	2.11766
32.5	12.2861
32.72	28.9064
32.94	25.6417
33.16	15.4962
33.38	4.53458
33.6	30.3431
33.82	1.11816
34.04	2.81705
34.26	15.5749
34.48	22.4009
34.7	0.493412
34.92	11.0274
35.14	49.0017
35.36	20.6307
35.58	15.1883
35.8	10.2181
36.02	26.7101
36.24	12.9466
36.46	2.1317
36.68	6.0234
36.9	26.4161
37.12	32.3742
37.34	20.6776
37.56	1.64123
37.78	20.8902
38	15.3237
38.22	12.6003
38.44	12.9991
38.66	22.0205
38.88	18.9656
39.1	19.2376
39.32	1.47775
39.54	23.0279
39.76	8.97071
39.98	10.0358
40.2	11.3096
40.42	13.6303
40.64	1.37987
40.86	4.04452
41.08	12.8722
41.3	7.05782
41.52	7.12112
41.74	32.4803
41.96	14.7891
42.18	0.072144
42.4	17.5005
42.62	7.82637
42.84	17.9417
43.06	0.965023
43.28	6.04041
43.5	33.0788
43.72	14.7715
43.94	9.55818
44.16	1.22577
44.38	7.55823
44.6	13.6442
44.82	3.5245
45.04	12.2921
45.26	4.48048
45.48	18.1115
45.7	13.6163
45.92	10.1556
46.14	10.2089
46.36	15.1064
46.58	5.0438
46.8	9.39819
47.02	14.8434
47.24	21.1911
47.46	30.9988
47.68	10.4446
47.9	37.5737
48.12	19.8893
48.34	7.34341
48.56	2.12457
48.78	15.7866
49	8.47269
49.22	1.22356
49.44	15.6559
49.66	21.181
49.88	21.3591
50.1	31.6802
50.32	11.8566
50.54	11.8386
50.76	8.16972
50.98	13.2837
51.2	7.08008
51.42	19.0132
51.64	19.487
51.86	5.37244
52.08	21.1412
52.3	28.9415
52.52	17.293
52.74	20.547
52.96	13.684
53.18	14.8101
53.4	30.9054
53.62	18.9648
53.84	19.7968
54.06	20.4593
54.28	7.70034
54.5	12.9054
54.72	4.86334
54.94	8.92517
55.16	23.0062
55.38	21.5584
55.6	27.3949
55.82	15.9169
56.04	33.9971
56.26	15.9485
56.48	5.00787
56.7	9.23691
56.92	0.795467
57.14	1.56021
57.36	19.8823
57.58	19.6066
57.8	12.0243
58.02	6.80521
58.24	15.0515
58.46	3.52424
58.68	2.00014
58.9	10.4928
59.12	8.22208
59.34	20.6092
59.56	14.9451
59.78	17.5777
60	14.1633
60.22	12.2412
60.44	17.2269
60.66	5.48121
60.88	17.8865
61.1	17.6865
61.32	20.8525
61.54	8.88251
61.76	30.1472
61.98	10.1229
62.2	16.8498
62.42	8.66424
62.64	22.1817
62.86	9.04968
63.08	1.73604
63.3	16.6286
63.52	6.39788
63.74	14.4266
63.96	14.0649
64.18	2.69274
64.4	2.98574
64.62	10.9501
64.84	15.2782
65.06	7.22714
65.28	18.1465
65.5	14.9805
65.72	11.1915
65.94	21.1622
66.16	2.01152
66.38	3.2848
66.6	14.3964
66.82	3.48319
67.04	5.63325
67.26	6.92783
67.48	14.0946
67.7	15.5899
67.92	9.54115
68.14	13.3218
68.36	6.07681
68.58	14.4023
68.8	6.6984
69.02	1.20935
69.24	11.6271
69.46	6.8175
69.68	14.5029
69.9	11.6935
70.12	17.6675
70.34	11.9145
70.56	19.0263
70.78	14.2188
71	0.645092
71.22	8.99884
71.44	13.9268
71.66	12.6681
71.88	15.5985
72.1	25.0271
72.32	16.1937
72.54	2.08874
72.76	10.6124
72.98	6.21962
73.2	2.24571
73.42	9.54361
73.64	8.07488
73.86	6.65992
74.08	9.7505
74.3	14.8744
74.52	1.22794
74.74	0.306938
74.96	7.1992
75.18	1.488
75.4	12.671
75.62	8.94188
75.84	1.89719
76.06	13.1749
76.28	10.2237
76.5	7.18867
76.72	20.1095
76.94	5.93325
77.16	11.7319
77.38	8.4899
77.6	7.81693
77.82	21.0852
78.04	10.514
78.26	4.18861
78.48	5.98686
78.7	12.2108
78.92	4.54313
79.14	9.86918
79.36	10.8726
79.58	1.65395
79.8	2.33774
80.02	6.1954
80.24	9.34058
80.46	16.3669
80.68	12.4462
80.9	15.7707
81.12	9.71955
81.34	2.06097
81.56	9.18707
81.78	13.2273
82	10.2645
82.22	4.15273
82.44	11.2865
82.66	4.85874
82.88	10.7765
83.1	6.83039
83.32	3.31759
83.54	9.13596
83.76	0.194977
83.98	8.97884
84.2	3.1408
84.42	9.75352
84.64	11.3573
84.86	2.13431
85.08	9.55624
85.3	19.3056
85.52	11.0311
85.74	16.2195
85.96	4.93756
86.18	4.10603
86.4	6.91851
86.62	3.66845
86.84	19.218
87.06	6.44996
87.28	7.02972
87.5	2.93624
87.72	10.9922
87.94	11.0231
88.16	23.5953
88.38	12.9823
88.6	19.264
88.82	10.4995
89.04	8.02276
89.26	14.5315
89.48	13.1567
89.7	15.9112
89.92	19.5444
