Measurement: Powder, Xray Data XY Processed
Mineral: Allanite-(Ce)
Rruff sample: R050043
Ideal chemistry: CaCeAl_2_Fe^2+^(Si_2_O_7_)(SiO_4_)O(OH)
Locality: Arendal, Norway
Source: University of Arizona Mineral Museum
Description: Black patially metamict fragment, note that a fragment of this sample was heated and is posted at R080092
Diffraction sample description: Powder, cell parameters are from single crystal
Measured chemistry: Ca_1.00_(Ce^3+^_0.22_Ca_0.21_La_0.11_Nd_0.11_Mn_0.08_Gd_0.07_Th_0.06_Y_0.06_Ti_0.05_Mg_0.03_)_Σ=1_(Al_1.82_Fe^3+^_0.40_Fe^2+^_0.78_)_Σ=3_[Si_2.00_O_7_][Si_1.00_O_4_]O(OH)
Cell parameters: a: 8.8(1) b: 5.66(6) c: 10.2(1) alpha: 90 beta: 115.6(3) gamma: 90 volume: 462(3) crystal system: monoclinic
x	intensity
5	0
5.22	11.3005
5.44	13.0424
5.66	11.3355
5.88	2.67916
6.1	15.3035
6.32	18.0619
6.54	8.13822
6.76	6.36666
6.98	7.77216
7.2	7.12873
7.42	0.23801
7.64	2.83234
7.86	4.60531
8.08	12.6327
8.3	9.43138
8.52	8.05316
8.74	4.12113
8.96	15.255
9.18	18.8774
9.4	17.103
9.62	12.3096
9.84	3.39693
10.06	2.90904
10.28	6.92415
10.5	11.6847
10.72	9.10989
10.94	13.0202
11.16	7.61402
11.38	14.5077
11.6	15.4756
11.82	8.47522
12.04	13.0245
12.26	10.3296
12.48	12.4512
12.7	5.68962
12.92	16.4628
13.14	6.13915
13.36	4.47354
13.58	4.76073
13.8	3.36158
14.02	7.80972
14.24	13.2295
14.46	8.63747
14.68	5.58712
14.9	17.6754
15.12	10.8794
15.34	7.61976
15.56	7.75497
15.78	8.7889
16	7.13397
16.22	7.66549
16.44	6.74265
16.66	7.10089
16.88	7.95189
17.1	6.30649
17.32	15.2447
17.54	10.6703
17.76	19.3307
17.98	5.76238
18.2	15.0729
18.42	5.72665
18.64	10.3972
18.86	5.06438
19.08	1.34713
19.3	4.14935
19.52	15.9661
19.74	10.601
19.96	4.00354
20.18	9.30717
20.4	2.12416
20.62	5.49626
20.84	8.79453
21.06	8.1803
21.28	11.44
21.5	10.6896
21.72	10.0175
21.94	5.23712
22.16	9.29564
22.38	8.43015
22.6	4.05179
22.82	14.8065
23.04	9.50616
23.26	8.30056
23.48	1.91171
23.7	7.30692
23.92	4.86709
24.14	5.38493
24.36	11.8477
24.58	12.5128
24.8	0.402359
25.02	16.2753
25.24	11.4256
25.46	15.4307
25.68	2.29719
25.9	9.98335
26.12	11.5142
26.34	7.40897
26.56	8.82456
26.78	9.93262
27	17.558
27.22	10.6325
27.44	3.41145
27.66	4.01848
27.88	8.74369
28.1	10.224
28.32	13.8779
28.54	5.28555
28.76	0.421492
28.98	9.8765
29.2	9.20803
29.42	4.80133
29.64	9.22174
29.86	11.9265
30.08	14.6913
30.3	15.7565
30.52	9.74357
30.74	10.1379
30.96	6.02398
31.18	9.45335
31.4	18.8865
31.62	8.32036
31.84	13.9735
32.06	18.2763
32.28	10.1501
32.5	13.227
32.72	4.63585
32.94	2.45882
33.16	8.31065
33.38	1.88884
33.6	9.00271
33.82	10.0781
34.04	18.4177
34.26	8.53875
34.48	15.8499
34.7	5.50027
34.92	6.20662
35.14	16.8809
35.36	9.31439
35.58	9.74594
35.8	11.8826
36.02	12.929
36.24	11.1613
36.46	5.12487
36.68	9.16265
36.9	1.11217
37.12	6.58554
37.34	0.484653
37.56	4.4856
37.78	9.45709
38	18.7469
38.22	16.8578
38.44	3.9955
38.66	0.362722
38.88	1.60065
39.1	12.199
39.32	19.418
39.54	9.69093
39.76	10.6953
39.98	2.23957
40.2	8.35608
40.42	9.37913
40.64	16.6772
40.86	8.73914
41.08	1.69685
41.3	3.79845
41.52	8.49419
41.74	3.31714
41.96	6.22581
42.18	1.92817
42.4	0.979233
42.62	6.79284
42.84	13.8982
43.06	10.0868
43.28	7.45914
43.5	6.80059
43.72	15.0246
43.94	13.2266
44.16	12.4147
44.38	3.9296
44.6	7.48154
44.82	15.4988
45.04	11.3729
45.26	4.9341
45.48	2.36431
45.7	9.63074
45.92	14.4122
46.14	13.6703
46.36	14.5379
46.58	5.24057
46.8	8.82164
47.02	9.50262
47.24	17.5841
47.46	2.62114
47.68	9.75858
47.9	1.0088
48.12	0.676359
48.34	15.6972
48.56	13.487
48.78	5.25682
49	23.5117
49.22	11.9329
49.44	12.8844
49.66	4.75339
49.88	15.6343
50.1	13.9894
50.32	7.92384
50.54	10.7584
50.76	5.5829
50.98	6.52548
51.2	12.3853
51.42	13.2007
51.64	11.9134
51.86	9.87313
52.08	5.63279
52.3	10.445
52.52	11.5708
52.74	12.2387
52.96	7.98156
53.18	1.6714
53.4	2.00339
53.62	5.36029
53.84	3.06856
54.06	13.2622
54.28	6.25846
54.5	4.57229
54.72	14.8018
54.94	5.48689
55.16	6.53073
55.38	5.36259
55.6	7.93381
55.82	14.6027
56.04	7.60963
56.26	6.88439
56.48	16.6461
56.7	9.02042
56.92	14.7301
57.14	11.9536
57.36	9.99396
57.58	13.2088
57.8	9.48796
58.02	19.46
58.24	7.85316
58.46	8.38231
58.68	18.2179
58.9	3.75265
59.12	9.87239
59.34	10.1272
59.56	19.1082
59.78	3.27768
60	16.0217
60.22	6.86501
60.44	23.8655
60.66	19.8292
60.88	10.4905
61.1	3.42271
61.32	3.36691
61.54	15.0498
61.76	10.8592
61.98	0.222786
62.2	2.29054
62.42	0.180809
62.64	3.5229
62.86	7.45792
63.08	16.4795
63.3	15.5474
63.52	-1.53815
63.74	13.9228
63.96	16.7975
64.18	7.80848
64.4	0.281488
64.62	8.8771
64.84	4.52317
65.06	6.60111
65.28	12.6813
65.5	4.0541
65.72	5.11341
65.94	1.71644
66.16	6.2299
66.38	11.3128
66.6	5.61219
66.82	9.83093
67.04	4.01846
67.26	14.6091
67.48	11.3909
67.7	3.95404
67.92	16.0026
68.14	5.83729
68.36	14.7181
68.58	15.9818
68.8	7.9583
69.02	8.00805
69.24	16.5956
69.46	4.5238
69.68	5.39867
69.9	9.06727
70.12	1.24961
70.34	8.23057
70.56	19.4917
70.78	6.2857
71	21.8461
71.22	2.31209
71.44	8.55141
71.66	4.15862
71.88	10.3471
72.1	11.3715
72.32	8.93545
72.54	6.95585
72.76	6.07962
72.98	2.39464
73.2	7.44246
73.42	6.50791
73.64	13.128
73.86	13.1716
74.08	8.10667
74.3	13.8894
74.52	3.9041
74.74	4.92416
74.96	18.9565
75.18	0.928495
75.4	1.75456
75.62	2.68915
75.84	7.56038
76.06	6.20233
76.28	10.1438
76.5	0.317728
76.72	8.99782
76.94	3.70079
77.16	5.76771
77.38	3.0258
77.6	7.99075
77.82	8.81899
78.04	6.09949
78.26	6.20595
78.48	7.01478
78.7	1.86904
78.92	5.71564
79.14	8.11464
79.36	9.82302
79.58	4.87338
79.8	1.42152
80.02	5.406
80.24	2.46815
80.46	7.826
80.68	16.7861
80.9	4.91013
81.12	10.9001
81.34	0.118515
81.56	5.27319
81.78	8.24159
82	10.1982
82.22	20.4787
82.44	10.7063
82.66	1.67844
82.88	12.2291
83.1	16.1826
83.32	11.3504
83.54	0.235491
83.76	5.5777
83.98	14.26
84.2	14.0817
84.42	6.9063
84.64	14.6978
84.86	18.4625
85.08	11.2882
85.3	8.37011
85.52	4.39732
85.74	0.507124
85.96	11.9144
86.18	2.43419
86.4	4.68478
86.62	13.9652
86.84	10.4273
87.06	16.5351
87.28	12.7797
87.5	9.91308
87.72	16.3064
87.94	13.0795
88.16	4.9318
88.38	2.1005
88.6	5.68373
88.82	5.55121
89.04	3.47159
89.26	12.1595
89.48	7.02687
89.7	7.10617
89.92	6.90327
