Measurement: Powder, Xray Data XY Processed
Mineral: Alum-(K)
Rruff sample: R040134
Ideal chemistry: KAl(S^6+^O_4_)_2_12H_2_O
Locality: Alunite mine, Esmeralda County, Nevada, USA
Source: University of Arizona Mineral Museum
Description: Colorless coarsely crystalline massive
Diffraction sample description: Powder
Measured chemistry: (K_0.86_(NH_4_)_0.14_)_Σ=1_Al_1.00_(S_1.00_O_4_)_2_·12H_2_O ; NH_4_ not measured but estimated by stoichiometry
Cell parameters: a: 12.1614(1) b: 12.1614(1) c: 12.1614(1) alpha: 90. beta: 90. gamma: 90. volume: 1798.67(5) crystal system: cubic
x	intensity
5	0
5.22	0.246429
5.44	12.5487
5.66	12.9801
5.88	8.33769
6.1	6.76008
6.32	4.50929
6.54	11.5173
6.76	5.9852
6.98	7.38486
7.2	18.1837
7.42	9.06691
7.64	0.302992
7.86	3.53976
8.08	6.07278
8.3	1.62387
8.52	4.20884
8.74	6.52994
8.96	4.46551
9.18	5.8266
9.4	0.102591
9.62	8.93899
9.84	6.70595
10.06	2.78398
10.28	18.6078
10.5	5.63934
10.72	1.85714
10.94	1.82162
11.16	0.186799
11.38	5.7643
11.6	0.413111
11.82	3.31685
12.04	0.324237
12.26	10.3486
12.48	9.41106
12.7	141.363
12.92	1.29425
13.14	4.95214
13.36	3.90786
13.58	5.83092
13.8	3.71362
14.02	7.81382
14.24	9.87771
14.46	14.2566
14.68	4.01115
14.9	4.69179
15.12	0.444067
15.34	6.29427
15.56	3.02537
15.78	6.03098
16	11.8715
16.22	44.9459
16.44	26.7513
16.66	8.40219
16.88	5.8156
17.1	2.79422
17.32	3.95052
17.54	0.041051
17.76	8.05384
17.98	27.4285
18.2	11.8035
18.42	17.1978
18.64	30.0486
18.86	4.40831
19.08	10.3055
19.3	14.0991
19.52	9.7228
19.74	2.10072
19.96	0.664851
20.18	20.1196
20.4	7.28384
20.62	277.238
20.84	26.2205
21.06	4.92217
21.28	8.32733
21.5	1.86367
21.72	21.8265
21.94	725.992
22.16	4.20774
22.38	3.40357
22.6	0.996736
22.82	5.35622
23.04	7.79865
23.26	2.16581
23.48	4.59331
23.7	8.78923
23.92	1.31011
24.14	6.61031
24.36	60.7015
24.58	9.78012
24.8	7.72248
25.02	5.29009
25.24	2.20604
25.46	6.93884
25.68	2.94355
25.9	6.23305
26.12	7.37709
26.34	3.04006
26.56	12.6252
26.78	11.4523
27	7.23846
27.22	9.15861
27.44	670.231
27.66	21.5265
27.88	11.4013
28.1	4.31696
28.32	0.949945
28.54	3.94196
28.76	13.2992
28.98	5.36777
29.2	7.09132
29.42	150.98
29.64	15.5547
29.86	3.37629
30.08	0.211786
30.3	314.495
30.52	3.92651
30.74	7.96294
30.96	14.8205
31.18	87.2524
31.4	6.17605
31.62	5.54411
31.84	1.3759
32.06	186.773
32.28	18.9625
32.5	6.02425
32.72	4.12181
32.94	259.772
33.16	4.09245
33.38	5.39659
33.6	5.52487
33.82	53.9153
34.04	5.8968
34.26	1.2782
34.48	9.55034
34.7	178.679
34.92	0.069191
35.14	0.832189
35.36	7.38329
35.58	2.26771
35.8	6.4971
36.02	4.7079
36.24	39.2492
36.46	4.71683
36.68	0.736908
36.9	4.83463
37.12	10.0433
37.34	6.22188
37.56	5.35559
37.78	26.5948
38	1.79313
38.22	12.9718
38.44	66.0817
38.66	6.92612
38.88	0.407876
39.1	5.62085
39.32	6.68585
39.54	7.31955
39.76	13.4674
39.98	9.65371
40.2	3.34015
40.42	16.1224
40.64	102.115
40.86	5.88462
41.08	1.73856
41.3	4.91058
41.52	6.7
41.74	1.76038
41.96	9.76458
42.18	2.51866
42.4	10.1624
42.62	5.67136
42.84	49.6493
43.06	10.4568
43.28	0.650178
43.5	13.766
43.72	4.46991
43.94	12.3277
44.16	18.1796
44.38	8.10755
44.6	6.20441
44.82	71.0832
45.04	7.54083
45.26	13.1245
45.48	30.0142
45.7	3.55073
45.92	3.31801
46.14	51.3319
46.36	11.2789
46.58	5.23067
46.8	7.20722
47.02	14.0173
47.24	98.3276
47.46	24.23
47.68	0.46357
47.9	22.3385
48.12	10.7324
48.34	18.7709
48.56	13.2369
48.78	3.34352
49	3.57624
49.22	45.9027
49.44	3.45969
49.66	18.6419
49.88	25.0287
50.1	4.56846
50.32	29.989
50.54	1.61485
50.76	4.67312
50.98	10.1374
51.2	4.89356
51.42	0.298306
51.64	7.37603
51.86	4.45106
52.08	7.26912
52.3	8.22883
52.52	4.16292
52.74	8.2771
52.96	4.97428
53.18	9.0765
53.4	36.7743
53.62	2.10283
53.84	29.29
54.06	4.29422
54.28	9.31717
54.5	15.2233
54.72	2.32338
54.94	17.3347
55.16	10.1729
55.38	5.19801
55.6	0.076903
55.82	4.91189
56.04	4.67148
56.26	6.55983
56.48	7.50966
56.7	14.8292
56.92	7.27077
57.14	21.2673
57.36	13.3177
57.58	0.147762
57.8	5.22257
58.02	1.76473
58.24	11.1036
58.46	10.6536
58.68	10.1291
58.9	5.32189
59.12	0.092948
59.34	5.86989
59.56	7.89501
59.78	5.81254
60	7.67901
60.22	1.6277
60.44	3.44496
60.66	8.27304
60.88	0.04203
61.1	9.66744
61.32	0.602925
61.54	12.4183
61.76	0.361785
61.98	23.2584
62.2	3.24417
62.42	5.99098
62.64	10.0313
62.86	9.3305
63.08	10.1758
63.3	6.35412
63.52	11.6416
63.74	5.83465
63.96	9.81819
64.18	1.77232
64.4	1.24537
64.62	4.20395
64.84	3.56821
65.06	30.5056
65.28	6.15614
65.5	9.97514
65.72	1.71138
65.94	8.30171
66.16	4.48111
66.38	4.50356
66.6	4.55655
66.82	4.69082
67.04	15.7638
67.26	5.54433
67.48	3.79064
67.7	8.73079
67.92	1.96584
68.14	0.133524
68.36	5.29796
68.58	8.05077
68.8	1.21128
69.02	7.40897
69.24	10.4201
69.46	3.45835
69.68	8.23514
69.9	11.1856
70.12	9.26509
70.34	0.287343
70.56	5.40578
70.78	7.59403
71	15.5879
71.22	11.6744
71.44	7.66493
71.66	14.7137
71.88	0.514621
72.1	5.38803
72.32	11.342
72.54	5.26327
72.76	3.24702
72.98	17.378
73.2	8.43088
73.42	10.5019
73.64	15.6448
73.86	7.54914
74.08	9.78737
74.3	0.90925
74.52	3.01385
74.74	10.1001
74.96	2.25258
75.18	2.43014
75.4	4.57122
75.62	3.40898
75.84	13.4311
76.06	8.37389
76.28	4.31633
76.5	4.23538
76.72	5.31015
76.94	8.17361
77.16	8.14006
77.38	11.1097
77.6	5.98172
77.82	6.79993
78.04	0.772004
78.26	4.87989
78.48	5.68974
78.7	4.68922
78.92	6.80962
79.14	12.9979
79.36	12.0358
79.58	6.04029
79.8	4.11838
80.02	3.1456
80.24	2.44136
80.46	17.7426
80.68	11.7766
80.9	10.993
81.12	4.15916
81.34	4.10604
81.56	2.93878
81.78	6.21278
82	6.39031
82.22	2.66496
82.44	6.64507
82.66	5.60684
82.88	3.59468
83.1	10.6809
83.32	14.6916
83.54	16.6784
83.76	2.8293
83.98	6.78366
84.2	4.39709
84.42	6.32312
84.64	3.17205
84.86	5.09099
85.08	1.04855
85.3	4.85508
85.52	4.94652
85.74	0.169569
85.96	6.82644
86.18	5.90338
86.4	4.96517
86.62	7.04312
86.84	5.333
87.06	4.33924
87.28	2.4785
87.5	11.5094
87.72	7.74944
87.94	2.71267
88.16	2.96191
88.38	11.3368
88.6	8.50919
88.82	6.77921
89.04	5.97658
89.26	8.40972
89.48	4.91536
89.7	6.76445
89.92	3.4197
