Measurement: Powder, Xray Data XY Processed
Mineral: Alunogen
Rruff sample: R060015
Ideal chemistry: Al_2_(S^6+^O_4_)_3_(H_2_O)_12_5H_2_O
Locality: Saxony, Germany
Source: American Museum of Natural History
Description: Colorless compact mass of fibers, along with some sprays of acicular single crystals
Diffraction sample description: Powder
Measured chemistry: (Al_1.77_Fe^3+^_0.23_)_Σ=2_(S_1.00_O_4_)_3_·17H_2_O
Cell parameters: a: 7.4130(4) b: 26.7219(8) c: 6.0210(7) alpha: 88.728(3) beta: 99.643(9) gamma: 91.802(5) volume: 1175.1(0) crystal system: triclinic
x	intensity
5	0
5.22	0.559
5.44	10.223
5.66	19.103
5.88	6.724
6.1	6.064
6.32	7.052
6.54	82.242
6.76	21.558
6.98	29.849
7.2	19.394
7.42	15.924
7.64	25.58
7.86	8.802
8.08	13.564
8.3	5.707
8.52	3.397
8.74	10.913
8.96	16.328
9.18	23.352
9.4	7.904
9.62	28.06
9.84	27.25
10.06	2.002
10.28	0.78
10.5	19.589
10.72	3.214
10.94	1.558
11.16	8.61
11.38	1.801
11.6	3.585
11.82	2.229
12.04	9.7
12.26	21.982
12.48	0.874
12.7	18.382
12.92	2.171
13.14	8.25
13.36	9.116
13.58	5.164
13.8	6.818
14.02	12.942
14.24	1.758
14.46	19.71
14.68	27.269
14.9	9.495
15.12	10.802
15.34	7.448
15.56	2.562
15.78	25.222
16	15.295
16.22	0.481
16.44	12.419
16.66	0.948
16.88	17.307
17.1	1.079
17.32	0.363
17.54	3.254
17.76	8.477
17.98	13.37
18.2	19.73
18.42	11.765
18.64	15.218
18.86	6.039
19.08	20.855
19.3	12.053
19.52	19.982
19.74	45.178
19.96	39.777
20.18	17.999
20.4	41.367
20.62	43.826
20.84	5.509
21.06	11.662
21.28	11.535
21.5	2.841
21.72	25.534
21.94	1.389
22.16	9.767
22.38	23.767
22.6	0.55
22.82	21.78
23.04	34.978
23.26	16.93
23.48	10.481
23.7	12.452
23.92	16.886
24.14	23.007
24.36	15.539
24.58	23.632
24.8	39.477
25.02	13.367
25.24	1.392
25.46	28.077
25.68	22.465
25.9	1.35
26.12	12.474
26.34	4.102
26.56	11.39
26.78	1.772
27	22.194
27.22	0.635
27.44	11.005
27.66	18.432
27.88	16.619
28.1	16.386
28.32	11.472
28.54	0.055
28.76	14.164
28.98	16.397
29.2	28.244
29.42	36.918
29.64	17.202
29.86	22.546
30.08	5.279
30.3	16.603
30.52	10.949
30.74	9.711
30.96	16.024
31.18	17.411
31.4	26.048
31.62	0.677
31.84	10.121
32.06	14.454
32.28	6.254
32.5	14.132
32.72	12.601
32.94	17.234
33.16	11.923
33.38	16.972
33.6	16.279
33.82	9.2
34.04	9.756
34.26	11.092
34.48	1.253
34.7	14.964
34.92	4.335
35.14	7.431
35.36	1.46
35.58	29.003
35.8	11.7
36.02	2.938
36.24	14.242
36.46	10.801
36.68	23.172
36.9	2.475
37.12	17.078
37.34	0.528
37.56	13.574
37.78	11.375
38	8.58
38.22	14.759
38.44	13.311
38.66	14.102
38.88	10.113
39.1	5.386
39.32	22.24
39.54	21.316
39.76	20.238
39.98	8.377
40.2	8.01
40.42	0.621
40.64	6.836
40.86	11.034
41.08	10.453
41.3	11.51
41.52	10.584
41.74	14.533
41.96	21.823
42.18	22.24
42.4	6.459
42.62	10.531
42.84	4.943
43.06	28.654
43.28	9.648
43.5	7.233
43.72	6
43.94	14.633
44.16	18.594
44.38	15.625
44.6	11.973
44.82	21.315
45.04	12.171
45.26	1.593
45.48	9.218
45.7	21.451
45.92	14.946
46.14	0.547
46.36	0.014
46.58	24.983
46.8	12.984
47.02	20.178
47.24	15.162
47.46	16.93
47.68	16.007
47.9	5.089
48.12	6.609
48.34	20.042
48.56	21.256
48.78	26.148
49	7.6
49.22	12.644
49.44	3.243
49.66	1.69
49.88	17.452
50.1	6.921
50.32	2.368
50.54	11.155
50.76	11.84
50.98	4.835
51.2	7.161
51.42	7.461
51.64	23.731
51.86	17.911
52.08	2.03
52.3	0.388
52.52	9.963
52.74	2.005
52.96	5.634
53.18	3.536
53.4	3.441
53.62	7.015
53.84	16.701
54.06	15.95
54.28	6.029
54.5	17.344
54.72	16.904
54.94	31.612
55.16	29.618
55.38	5.905
55.6	6.617
55.82	12.03
56.04	8.22
56.26	8.65
56.48	11.615
56.7	14.847
56.92	10.724
57.14	10.616
57.36	21.439
57.58	20.022
57.8	21.338
58.02	8.604
58.24	6.486
58.46	19.612
58.68	4.548
58.9	19.279
59.12	14.548
59.34	12.083
59.56	9.655
59.78	34.85
60	12.505
60.22	12.093
60.44	10.375
60.66	19.643
60.88	17.801
61.1	13.53
61.32	17.052
61.54	0.133
61.76	9.555
61.98	12.841
62.2	1.497
62.42	4.362
62.64	0.789
62.86	4.398
63.08	17.835
63.3	8.681
63.52	8.655
63.74	18.014
63.96	14.033
64.18	13.462
64.4	14.487
64.62	10.124
64.84	14.321
65.06	16.043
65.28	8.46
65.5	1.51
65.72	4.819
65.94	10.527
66.16	4.558
66.38	8.767
66.6	9.661
66.82	5.83
67.04	8.105
67.26	0.859
67.48	9.496
67.7	7.548
67.92	16.008
68.14	11.157
68.36	23.285
68.58	3.125
68.8	23.26
69.02	13.301
69.24	1.494
69.46	4.398
69.68	22.41
69.9	1.057
70.12	4.728
70.34	12.977
70.56	0.026
70.78	18.167
71	28.698
71.22	0.418
71.44	15.092
71.66	14.317
71.88	19.656
72.1	17.499
72.32	22.595
72.54	20.14
72.76	4.134
72.98	4.471
73.2	10.326
73.42	7.031
73.64	6.991
73.86	1.706
74.08	4.332
74.3	21.437
74.52	21.765
74.74	4.061
74.96	5.612
75.18	5.481
75.4	11.864
75.62	10.468
75.84	10.955
76.06	0.282
76.28	1.477
76.5	13
76.72	6.089
76.94	7.848
77.16	2.83
77.38	7.329
77.6	6.337
77.82	16.077
78.04	4.27
78.26	19.534
78.48	11.285
78.7	11.691
78.92	0.854
79.14	10.952
79.36	8.069
79.58	11.373
79.8	16.114
80.02	3.425
80.24	10.197
80.46	14.198
80.68	15.123
80.9	13.688
81.12	18.544
81.34	6.841
81.56	22.828
81.78	19.74
82	6.458
82.22	7.634
82.44	13.299
82.66	2.411
82.88	18.768
83.1	12.991
83.32	11.747
83.54	6.315
83.76	11.984
83.98	6.078
84.2	1.827
84.42	10.133
84.64	6.462
84.86	7.874
85.08	15.742
85.3	8.64
85.52	8.887
85.74	3.578
85.96	17.359
86.18	7.585
86.4	10.667
86.62	8.012
86.84	11.222
87.06	10.214
87.28	8.063
87.5	16.304
87.72	20.215
87.94	12.325
88.16	8.728
88.38	0.833
88.6	6.199
88.82	18.327
89.04	7.306
89.26	9.994
89.48	15.944
89.7	0.617
89.92	12.204
