Measurement: Powder, Xray Data XY Processed
Mineral: Amarantite
Rruff sample: R050153
Ideal chemistry: Fe^3+^_2_O(S^6+^O_4_)_2_7H_2_O
Locality: Paposo, Antofagasta, Chile
Source: Jim McGlasson
Description: Aggregate of red radiating platy crystals
Diffraction sample description: Powder
Measured chemistry: Fe^3+^_2.00_(S_1.00_O_4_)_2_OÂ·7H_2_O
Cell parameters: a: 8.944(2) b: 11.662(2) c: 6.670(4) alpha: 95.88(2) beta: 90.49(5) gamma: 97.24(4) volume: 686.4(5) crystal system: triclinic
x	intensity
5	0
5.22	33.82
5.44	34.088
5.66	21.349
5.88	13.162
6.1	11.331
6.32	11.398
6.54	4.939
6.76	7.963
6.98	28.847
7.2	20.637
7.42	12.632
7.64	43.166
7.86	13.256
8.08	13.334
8.3	16.036
8.52	21.34
8.74	20.833
8.96	21.456
9.18	0.86
9.4	9.168
9.62	1.056
9.84	27.849
10.06	418.029
10.28	19.041
10.5	12.041
10.72	26.834
10.94	1.346
11.16	13.385
11.38	27.871
11.6	9.718
11.82	20.36
12.04	15.998
12.26	10.52
12.48	19.086
12.7	8.234
12.92	4.646
13.14	4.493
13.36	22.769
13.58	5.272
13.8	19.088
14.02	13.857
14.24	27.327
14.46	6.262
14.68	12.592
14.9	19.853
15.12	26.558
15.34	10.213
15.56	13.878
15.78	32.583
16	14.63
16.22	24.386
16.44	3.834
16.66	21.773
16.88	30.182
17.1	3.048
17.32	34.037
17.54	26.192
17.76	18.39
17.98	13.242
18.2	11.147
18.42	44.088
18.64	11.241
18.86	14.495
19.08	12.779
19.3	18.045
19.52	36.806
19.74	16.801
19.96	30.461
20.18	28.967
20.4	22.714
20.62	18.599
20.84	10.88
21.06	23.621
21.28	5.683
21.5	14.925
21.72	6.569
21.94	8.554
22.16	29.084
22.38	25.897
22.6	9.904
22.82	45.565
23.04	19.033
23.26	19.301
23.48	20.894
23.7	34.115
23.92	18.613
24.14	14.385
24.36	17.794
24.58	29.787
24.8	13.491
25.02	24.097
25.24	30.949
25.46	16.419
25.68	11.824
25.9	32.341
26.12	31.042
26.34	16.673
26.56	16.222
26.78	23.633
27	12.337
27.22	30.25
27.44	14.469
27.66	18.238
27.88	2.322
28.1	42.573
28.32	19.292
28.54	18.271
28.76	34.701
28.98	18.443
29.2	8.618
29.42	24.026
29.64	8.823
29.86	0.018
30.08	8.125
30.3	11.33
30.52	10.484
30.74	11.752
30.96	16.194
31.18	8.55
31.4	3.362
31.62	17.821
31.84	6.854
32.06	15.36
32.28	25.019
32.5	10.441
32.72	0.903
32.94	9.714
33.16	19.189
33.38	9.786
33.6	22.287
33.82	22.772
34.04	18.443
34.26	27.733
34.48	23.634
34.7	2.533
34.92	12.208
35.14	11.899
35.36	22.561
35.58	3.725
35.8	8.784
36.02	21.687
36.24	15.195
36.46	28.705
36.68	28.352
36.9	19.623
37.12	20.236
37.34	29.018
37.56	13.866
37.78	4.193
38	16.247
38.22	12.538
38.44	13.829
38.66	25.385
38.88	16.932
39.1	23.768
39.32	24.972
39.54	12.13
39.76	9.688
39.98	20.207
40.2	16.578
40.42	6.245
40.64	25.134
40.86	23.726
41.08	22.184
41.3	13.231
41.52	13.598
41.74	1.127
41.96	27.224
42.18	6.38
42.4	19.005
42.62	5.728
42.84	14.488
43.06	21.274
43.28	28.265
43.5	9.221
43.72	23.073
43.94	18.196
44.16	17.495
44.38	18.048
44.6	19.013
44.82	21.948
45.04	15.915
45.26	2.918
45.48	21.47
45.7	31.431
45.92	1.325
46.14	24.199
46.36	23.633
46.58	27.408
46.8	1.872
47.02	20.971
47.24	9.566
47.46	25.546
47.68	33.451
47.9	24.987
48.12	4.542
48.34	17.595
48.56	10.588
48.78	0.293
49	20.973
49.22	20.705
49.44	4.202
49.66	10.169
49.88	35.174
50.1	20.5
50.32	3.942
50.54	6.335
50.76	18.054
50.98	21.49
51.2	21.967
51.42	24.38
51.64	16.59
51.86	12.279
52.08	16.181
52.3	8.94
52.52	2.595
52.74	0.2
52.96	20.65
53.18	33.045
53.4	11.615
53.62	22.974
53.84	8.477
54.06	17.62
54.28	17.088
54.5	6.853
54.72	23.326
54.94	6.931
55.16	10.175
55.38	5.751
55.6	9.243
55.82	17.378
56.04	12.521
56.26	15.912
56.48	17.189
56.7	18.34
56.92	17.27
57.14	11.19
57.36	10.188
57.58	3.777
57.8	9.097
58.02	11.602
58.24	19.752
58.46	7.016
58.68	14.787
58.9	13.246
59.12	13.98
59.34	14.265
59.56	31.127
59.78	6.55
60	7.992
60.22	20.885
60.44	20.604
60.66	18.889
60.88	21.96
61.1	11.553
61.32	17.111
61.54	17.376
61.76	11.279
61.98	11.674
62.2	12.724
62.42	25.517
62.64	13.807
62.86	22.326
63.08	28.9
63.3	15.661
63.52	10.801
63.74	13.706
63.96	14.383
64.18	23.463
64.4	30.196
64.62	17.265
64.84	13.353
65.06	23.266
65.28	29.278
65.5	33.391
65.72	0.902
65.94	33.955
66.16	13.298
66.38	26.823
66.6	20.214
66.82	23.128
67.04	11.591
67.26	5.573
67.48	13.329
67.7	24.942
67.92	0.097
68.14	20.316
68.36	4.795
68.58	13.712
68.8	11.696
69.02	15.367
69.24	8.314
69.46	1.103
69.68	22.316
69.9	24.036
70.12	24.796
70.34	31.336
70.56	18.375
70.78	22.57
71	7.334
71.22	17.997
71.44	0.884
71.66	25.037
71.88	18.759
72.1	12.645
72.32	2.422
72.54	21.065
72.76	13.159
72.98	13.575
73.2	12.294
73.42	26.257
73.64	25.174
73.86	4.518
74.08	2.359
74.3	13.237
74.52	23.77
74.74	9.051
74.96	25.003
75.18	30.552
75.4	19.435
75.62	13.553
75.84	2.307
76.06	17.765
76.28	9.452
76.5	22.868
76.72	16.26
76.94	13.699
77.16	32.907
77.38	23.18
77.6	23.928
77.82	12.692
78.04	19.739
78.26	9.758
78.48	19.311
78.7	24.425
78.92	22.407
79.14	33.559
79.36	15.439
79.58	7.359
79.8	4.395
80.02	6.533
80.24	7.622
80.46	0.851
80.68	16.811
80.9	19.236
81.12	3.179
81.34	16.989
81.56	15.472
81.78	17.637
82	6.412
82.22	8.039
82.44	16.115
82.66	5.276
82.88	17.306
83.1	8.701
83.32	2.861
83.54	4.112
83.76	38.253
83.98	3.02
84.2	13.796
84.42	18.225
84.64	8.012
84.86	16.555
85.08	14.1
85.3	13.321
85.52	21.678
85.74	18.407
85.96	29.828
86.18	7.951
86.4	7.966
86.62	24.339
86.84	17.024
87.06	19.72
87.28	13.179
87.5	13.484
87.72	9.491
87.94	11.403
88.16	4.331
88.38	13.716
88.6	11.225
88.82	30.711
89.04	9.425
89.26	26.958
89.48	26.383
89.7	23.077
89.92	15.421
