Measurement: Powder, Xray Data XY Processed
Mineral: Amblygonite
Rruff sample: R040006
Ideal chemistry: LiAlPO_4_F
Locality: Pala, San Diego County, California, USA
Source: University of Arizona Mineral Museum
Description: Light gray coarsely crystalline massive
Diffraction sample description: Powder
Measured chemistry: LiAl_1.00_(P_1.00_O_4_)(F_0.73_(OH)_0.27_)_Î£=1_; Li assumed by stoichiometry; OH estimated by charge balance
Cell parameters: a: 6.6974(4) b: 7.7199(7) c: 6.9758(4) alpha: 90.945(8) beta: 117.764(4) gamma: 91.406(6) volume: 318.90(3) crystal system: triclinic
x	intensity
5	0
5.22	8.72
5.44	0.844
5.66	1.425
5.88	16.082
6.1	30.191
6.32	15.419
6.54	9.469
6.76	15.358
6.98	8.74
7.2	15.725
7.42	5.895
7.64	14.856
7.86	10.861
8.08	4.309
8.3	13.27
8.52	10.594
8.74	9.054
8.96	9.188
9.18	10.705
9.4	7.024
9.62	6.424
9.84	6.416
10.06	5.647
10.28	7.632
10.5	5.532
10.72	4.596
10.94	11.621
11.16	15.83
11.38	3.776
11.6	9.545
11.82	0.731
12.04	5.014
12.26	5.987
12.48	3.874
12.7	5.003
12.92	13.937
13.14	11.882
13.36	1.774
13.58	0.378
13.8	2.799
14.02	5.844
14.24	0.201
14.46	12.973
14.68	5.277
14.9	4.345
15.12	2.292
15.34	6.543
15.56	4.81
15.78	4.991
16	5.159
16.22	2.14
16.44	3.84
16.66	4.062
16.88	9.252
17.1	9.049
17.32	3.791
17.54	1.535
17.76	6.1
17.98	12.592
18.2	2.936
18.42	2.462
18.64	80.611
18.86	22.54
19.08	373.928
19.3	219.48
19.52	9.175
19.74	0.833
19.96	3.187
20.18	5.355
20.4	8.788
20.62	12.984
20.84	23.416
21.06	8.674
21.28	11.324
21.5	9.815
21.72	10.343
21.94	6.748
22.16	8.095
22.38	13.533
22.6	7.889
22.82	5.375
23.04	45.905
23.26	10.998
23.48	13.876
23.7	0.753
23.92	2
24.14	2.238
24.36	1.755
24.58	8.034
24.8	6.706
25.02	4.65
25.24	12.619
25.46	20.228
25.68	2.948
25.9	17.638
26.12	3.932
26.34	1.223
26.56	8.225
26.78	35.393
27	51.718
27.22	8.373
27.44	133.641
27.66	190.381
27.88	47.362
28.1	151.956
28.32	709.318
28.54	16.346
28.76	5.06
28.98	28.027
29.2	1.235
29.42	2.48
29.64	13.744
29.86	4.865
30.08	47.651
30.3	263.347
30.52	40.235
30.74	13.386
30.96	0.027
31.18	5.065
31.4	10.822
31.62	12.512
31.84	6.913
32.06	5.156
32.28	10.423
32.5	10.22
32.72	5.671
32.94	10.268
33.16	7.76
33.38	19.852
33.6	2.052
33.82	9.002
34.04	7.81
34.26	1.848
34.48	0.258
34.7	5.246
34.92	13.063
35.14	76.764
35.36	8.989
35.58	10.398
35.8	6.847
36.02	105.674
36.24	0.85
36.46	5.551
36.68	20.909
36.9	8.435
37.12	0.745
37.34	5.036
37.56	41.791
37.78	43.639
38	9.361
38.22	0.639
38.44	5.968
38.66	31.508
38.88	8.866
39.1	14.075
39.32	5.67
39.54	117.944
39.76	7.493
39.98	9.796
40.2	11.665
40.42	3.866
40.64	21.954
40.86	6.327
41.08	38.602
41.3	8.356
41.52	9.29
41.74	9.832
41.96	9.609
42.18	6.163
42.4	3.29
42.62	35.37
42.84	28.145
43.06	18.986
43.28	21.626
43.5	4.693
43.72	15.848
43.94	5.372
44.16	18.488
44.38	26.802
44.6	6.513
44.82	4.452
45.04	6.481
45.26	11.67
45.48	6.571
45.7	0.495
45.92	2.326
46.14	11.012
46.36	0.548
46.58	149.48
46.8	31.138
47.02	18.478
47.24	69.474
47.46	3.626
47.68	5.167
47.9	17.446
48.12	69.218
48.34	7.675
48.56	4.286
48.78	2.531
49	5.817
49.22	7.63
49.44	6.174
49.66	14.385
49.88	3.352
50.1	11.869
50.32	6.099
50.54	0.956
50.76	7.944
50.98	192.861
51.2	14.803
51.42	4.816
51.64	3.285
51.86	13.066
52.08	9.379
52.3	6.795
52.52	52.241
52.74	207.256
52.96	6.91
53.18	1.24
53.4	12.625
53.62	7.307
53.84	7.766
54.06	14.223
54.28	8.609
54.5	7.77
54.72	4.937
54.94	0.43
55.16	6.936
55.38	68.765
55.6	19.391
55.82	7.678
56.04	19.282
56.26	0.085
56.48	48.063
56.7	8.866
56.92	36.613
57.14	32.755
57.36	92.056
57.58	23.414
57.8	125.787
58.02	53.17
58.24	7.232
58.46	173.521
58.68	27.364
58.9	1.984
59.12	0.766
59.34	1.326
59.56	4.181
59.78	3.48
60	19.87
60.22	26.862
60.44	8.58
60.66	11.394
60.88	20.177
61.1	13.824
61.32	2.575
61.54	6.288
61.76	3.023
61.98	1.479
62.2	23.575
62.42	6.131
62.64	3.956
62.86	58.283
63.08	12.723
63.3	7.201
63.52	12.317
63.74	11.647
63.96	0.276
64.18	4.823
64.4	11.753
64.62	5.932
64.84	4.993
65.06	95.101
65.28	24.382
65.5	29.212
65.72	10.197
65.94	10.203
66.16	0.957
66.38	2.061
66.6	28.916
66.82	50.708
67.04	13.798
67.26	8.966
67.48	7.236
67.7	6.294
67.92	18.776
68.14	2.08
68.36	6.246
68.58	6.601
68.8	10.293
69.02	1.65
69.24	9.844
69.46	5.44
69.68	5.528
69.9	5.152
70.12	12.94
70.34	11.703
70.56	0.838
70.78	4.596
71	14.148
71.22	1.65
71.44	5.264
71.66	9.465
71.88	4.915
72.1	15.703
72.32	22.689
72.54	10.045
72.76	6.65
72.98	13.051
73.2	15.823
73.42	0.767
73.64	1.699
73.86	16.733
74.08	271.407
74.3	120.758
74.52	9.876
74.74	13.911
74.96	10.37
75.18	0.086
75.4	4.523
75.62	0.057
75.84	7.569
76.06	46.217
76.28	76.016
76.5	32.448
76.72	8.948
76.94	6.391
77.16	12.361
77.38	1.27
77.6	3.202
77.82	20.942
78.04	10.657
78.26	11.409
78.48	4.705
78.7	8.242
78.92	7.848
79.14	2.777
79.36	12.71
79.58	4.137
79.8	9.917
80.02	6.92
80.24	6.202
80.46	3.836
80.68	0.188
80.9	9.485
81.12	6.624
81.34	8.649
81.56	0.395
81.78	2.498
82	8.263
82.22	3.345
82.44	16.167
82.66	26.719
82.88	21.659
83.1	13.446
83.32	18.549
83.54	17.407
83.76	5.606
83.98	0.117
84.2	1.246
84.42	3.094
84.64	39.584
84.86	52.991
85.08	27.57
85.3	7.554
85.52	2.765
85.74	0.865
85.96	0.221
86.18	4.147
86.4	10.046
86.62	9.693
86.84	3.049
87.06	5.445
87.28	4.183
87.5	2.68
87.72	1.415
87.94	23.152
88.16	6.384
88.38	11.154
88.6	5.278
88.82	1.422
89.04	13.691
89.26	2.062
89.48	7.752
89.7	9.583
89.92	2.964
