Measurement: Powder, Xray Data XY Processed
Mineral: Amblygonite
Rruff sample: R040067
Ideal chemistry: LiAlPO_4_F
Locality: Montebras, France
Source: University of Arizona Mineral Museum
Description: Pale blue fine-grained massive, associated with wavellite
Diffraction sample description: Powder, mixed with spodumene and wavellite
Measured chemistry: (Li_0.76_Na_0.24_)Al(PO_4_)(F_0.80_(OH)_0.20_)
Cell parameters: a: 6.6770(6) b: 7.7199(5) c: 6.9531(4) alpha: 90.752(8) beta: 117.631(7) gamma: 91.230(8) volume: 317.35(3) crystal system: triclinic
x	intensity
5	0
5.22	14.003
5.44	1.984
5.66	14.263
5.88	14.06
6.1	9.018
6.32	15.56
6.54	21.164
6.76	10.988
6.98	2.383
7.2	6.242
7.42	3.86
7.64	1.859
7.86	1.674
8.08	2.182
8.3	8.846
8.52	11.043
8.74	9.083
8.96	5.665
9.18	7.671
9.4	5.673
9.62	5.28
9.84	9.276
10.06	21.123
10.28	73.136
10.5	66.225
10.72	11.747
10.94	8.151
11.16	2.92
11.38	14.372
11.6	3.671
11.82	4.156
12.04	0.444
12.26	5.467
12.48	9.337
12.7	6.949
12.92	3.901
13.14	5.549
13.36	7.338
13.58	3.81
13.8	12.313
14.02	7.517
14.24	2.224
14.46	9.106
14.68	6.14
14.9	19.085
15.12	1.727
15.34	4.182
15.56	8.31
15.78	24.686
16	6.724
16.22	3.978
16.44	4.962
16.66	11.055
16.88	2.878
17.1	7.274
17.32	12.959
17.54	0.475
17.76	2.164
17.98	7.476
18.2	10.957
18.42	23.489
18.64	79.235
18.86	21.927
19.08	329.647
19.3	74.616
19.52	4.319
19.74	0.429
19.96	4.008
20.18	8.915
20.4	1.349
20.62	1.619
20.84	7.15
21.06	1.556
21.28	9.866
21.5	4.25
21.72	10.669
21.94	3.671
22.16	3.956
22.38	12.263
22.6	9.833
22.82	6.162
23.04	49.463
23.26	3.488
23.48	10.018
23.7	4.042
23.92	6.755
24.14	0.17
24.36	11.805
24.58	1.677
24.8	3.902
25.02	2.671
25.24	7.41
25.46	10.823
25.68	9.511
25.9	17.559
26.12	39.964
26.34	1.607
26.56	2.426
26.78	31.676
27	159.835
27.22	26.499
27.44	122.523
27.66	115.557
27.88	33.216
28.1	198.519
28.32	462.618
28.54	12.373
28.76	17.712
28.98	28.864
29.2	4.248
29.42	0.652
29.64	0.213
29.86	10.704
30.08	39.442
30.3	277.432
30.52	19.088
30.74	60.297
30.96	65.857
31.18	1.278
31.4	0.232
31.62	4.017
31.84	13.629
32.06	13.217
32.28	5.927
32.5	6.271
32.72	4.706
32.94	3.977
33.16	4.799
33.38	1.741
33.6	2.344
33.82	0.474
34.04	2.039
34.26	0.773
34.48	11.564
34.7	8.153
34.92	15.561
35.14	49.769
35.36	10.845
35.58	8.181
35.8	4.069
36.02	66.285
36.24	42.061
36.46	22.172
36.68	4.371
36.9	14.577
37.12	0.569
37.34	3.078
37.56	25.86
37.78	81.845
38	12.9
38.22	9.936
38.44	7.744
38.66	34.35
38.88	16.948
39.1	13.408
39.32	7.592
39.54	21.353
39.76	2.646
39.98	3.061
40.2	4.401
40.42	3.494
40.64	2.496
40.86	12.378
41.08	16.281
41.3	19.689
41.52	8.304
41.74	30.922
41.96	3.188
42.18	3.92
42.4	10.447
42.62	7.544
42.84	56.695
43.06	25.893
43.28	28.135
43.5	9.19
43.72	6.553
43.94	7.544
44.16	29.878
44.38	14.976
44.6	24.667
44.82	3.026
45.04	6.438
45.26	1.146
45.48	14.825
45.7	3.521
45.92	14.022
46.14	2.957
46.36	17.342
46.58	27.519
46.8	63.358
47.02	31.71
47.24	34.771
47.46	4.413
47.68	4.075
47.9	10.413
48.12	37.898
48.34	14.61
48.56	7.146
48.78	7.179
49	6.347
49.22	2.681
49.44	1.456
49.66	2.172
49.88	22.867
50.1	2.607
50.32	7.835
50.54	5.63
50.76	4.732
50.98	15.609
51.2	0.364
51.42	2.149
51.64	2.884
51.86	4.118
52.08	11.535
52.3	7.43
52.52	5.338
52.74	25.069
52.96	5.236
53.18	1.807
53.4	3.512
53.62	16.524
53.84	13.49
54.06	8.494
54.28	1.509
54.5	7.139
54.72	6.765
54.94	10.335
55.16	18.285
55.38	21.435
55.6	20.638
55.82	0.804
56.04	6.409
56.26	4.076
56.48	8.804
56.7	20.803
56.92	35.749
57.14	15.839
57.36	13.043
57.58	20.625
57.8	1.199
58.02	57.996
58.24	72.812
58.46	52.297
58.68	11.725
58.9	3.04
59.12	0.769
59.34	4.622
59.56	10.857
59.78	4.058
60	26.226
60.22	9.27
60.44	15.963
60.66	2.792
60.88	39.095
61.1	27.257
61.32	8.589
61.54	1.307
61.76	11.679
61.98	9.722
62.2	1.786
62.42	7.448
62.64	15.144
62.86	37.662
63.08	18.256
63.3	9.122
63.52	7.847
63.74	16.493
63.96	27.555
64.18	23.371
64.4	2.107
64.62	1.069
64.84	4.031
65.06	5.837
65.28	0.318
65.5	10.552
65.72	0.363
65.94	18.312
66.16	9.347
66.38	0.649
66.6	22.882
66.82	19.083
67.04	9.233
67.26	2.691
67.48	1.165
67.7	8.578
67.92	17.262
68.14	8.987
68.36	8.663
68.58	5.014
68.8	11.982
69.02	5.272
69.24	2.742
69.46	4.34
69.68	4.558
69.9	15.668
70.12	0.662
70.34	2.69
70.56	8.51
70.78	7.176
71	5.086
71.22	5.815
71.44	2.681
71.66	0.442
71.88	5.084
72.1	7.634
72.32	4.488
72.54	6.245
72.76	8.957
72.98	8.41
73.2	14.119
73.42	9.045
73.64	6.035
73.86	21.112
74.08	14.281
74.3	30.725
74.52	17.178
74.74	11.383
74.96	12.655
75.18	1.963
75.4	9.234
75.62	6.46
75.84	8.77
76.06	30.087
76.28	24.15
76.5	10.778
76.72	1.954
76.94	2.733
77.16	3.717
77.38	5.63
77.6	5.754
77.82	0.304
78.04	7.592
78.26	6.362
78.48	1.215
78.7	7.176
78.92	17.063
79.14	10.899
79.36	17.395
79.58	5.935
79.8	4.39
80.02	3.648
80.24	7.076
80.46	10.365
80.68	6.543
80.9	12.635
81.12	5.706
81.34	4.659
81.56	4.614
81.78	8.185
82	4.703
82.22	6.209
82.44	1.315
82.66	6.326
82.88	18.662
83.1	13.734
83.32	10.868
83.54	2.97
83.76	3.265
83.98	3.372
84.2	9.488
84.42	3.677
84.64	7.794
84.86	16.906
85.08	10.899
85.3	5.841
85.52	4.094
85.74	0.021
85.96	2.023
86.18	6.093
86.4	2.184
86.62	6.187
86.84	0.089
87.06	2.336
87.28	4.082
87.5	5.966
87.72	8.736
87.94	3.598
88.16	6.75
88.38	11.858
88.6	6.931
88.82	15.052
89.04	5.346
89.26	7.229
89.48	11.635
89.7	2.914
89.92	6.036
