Measurement: Powder, Xray Data XY Processed
Mineral: Ameghinite
Rruff sample: R060643
Ideal chemistry: NaB_3_O_3_(OH)_4_
Locality: Tinkalayu mine, Salar del Hombre Muerto, Salta province, Argentina
Source: Michael Scott
Description: Colorless glassy
Diffraction sample description: Single crystal, powder profile is calculated
Cell parameters: a: 18.408(5) b: 9.880(4) c: 6.323(3) alpha: 90 beta: 104.40(2) gamma: 90 volume: 1113.8(7) crystal system: monoclinic
x	intensity
5	0
5.22	0
5.44	0
5.66	0
5.88	0
6.1	0
6.32	0
6.54	0
6.76	0
6.98	0
7.2	0
7.42	0
7.64	0
7.86	0
8.08	0
8.3	0
8.52	0
8.74	0
8.96	0
9.18	0
9.4	0
9.62	0
9.84	0.346
10.06	0
10.28	0.001
10.5	0
10.72	0
10.94	0
11.16	0
11.38	0
11.6	0
11.82	0
12.04	0
12.26	0
12.48	0
12.7	0
12.92	0
13.14	0
13.36	0
13.58	0
13.8	0
14.02	0
14.24	0
14.46	0
14.68	0
14.9	0
15.12	0
15.34	0
15.56	0
15.78	0
16	0
16.22	0
16.44	0
16.66	9.734
16.88	0
17.1	0
17.32	0.376
17.54	0.001
17.76	0
17.98	44.59
18.2	0
18.42	0
18.64	0.516
18.86	0.027
19.08	0
19.3	0
19.52	0
19.74	0
19.96	2.899
20.18	2.779
20.4	0
20.62	0.782
20.84	0
21.06	0
21.28	0
21.5	0
21.72	0
21.94	0
22.16	0
22.38	0
22.6	0
22.82	0
23.04	0.371
23.26	0.009
23.48	0
23.7	4.111
23.92	0
24.14	0
24.36	0
24.58	0
24.8	0
25.02	8.093
25.24	0
25.46	0
25.68	0
25.9	0
26.12	0
26.34	0
26.56	18.951
26.78	0.001
27	0.665
27.22	0
27.44	0.612
27.66	0.182
27.88	0
28.1	1.718
28.32	34.574
28.54	0
28.76	0
28.98	0.001
29.2	52.889
29.42	0
29.64	0.33
29.86	0.315
30.08	3.846
30.3	0
30.52	0.135
30.74	7.103
30.96	1.385
31.18	0.01
31.4	0
31.62	0
31.84	9.194
32.06	0.035
32.28	0.008
32.5	0
32.72	0.18
32.94	0.318
33.16	7.762
33.38	0.004
33.6	0.002
33.82	6.464
34.04	0
34.26	0
34.48	0.718
34.7	0.278
34.92	0
35.14	12.898
35.36	0.378
35.58	0
35.8	0.424
36.02	1.381
36.24	0.084
36.46	6.698
36.68	0
36.9	0
37.12	0.22
37.34	0
37.56	0.633
37.78	1.24
38	1.302
38.22	0
38.44	0
38.66	0
38.88	0
39.1	0
39.32	2.405
39.54	0.936
39.76	0.536
39.98	0
40.2	0.461
40.42	8.409
40.64	0
40.86	1.708
41.08	2.88
41.3	0.012
41.52	6.086
41.74	1.574
41.96	0.011
42.18	0
42.4	0.146
42.62	1.093
42.84	0.001
43.06	0
43.28	0
43.5	4.482
43.72	3.012
43.94	1.052
44.16	1.511
44.38	2.32
44.6	0.793
44.82	0.077
45.04	3.526
45.26	0.002
45.48	0.004
45.7	0.598
45.92	0.009
46.14	1.031
46.36	0.381
46.58	0.018
46.8	2.233
47.02	1.593
47.24	1.825
47.46	0.005
47.68	0.583
47.9	1.41
48.12	0.279
48.34	1.018
48.56	1.985
48.78	0.001
49	3.399
49.22	1.514
49.44	0
49.66	4.756
49.88	0.136
50.1	1.372
50.32	4.621
50.54	0.407
50.76	0.17
50.98	0.027
51.2	0.965
51.42	0.378
51.64	2.132
51.86	1.541
52.08	0.539
52.3	0.003
52.52	1.544
52.74	1.847
52.96	0.156
53.18	1.805
53.4	2.069
53.62	0.235
53.84	0.014
54.06	0.115
54.28	0.003
54.5	0.002
54.72	0.521
54.94	1.118
55.16	0
55.38	0.452
55.6	0.964
55.82	0.35
56.04	4.392
56.26	2.107
56.48	0.083
56.7	1.229
56.92	0.571
57.14	0.532
57.36	0.206
57.58	0.574
57.8	0.002
58.02	3.027
58.24	1.541
58.46	1.775
58.68	1.813
58.9	0.041
59.12	0.766
59.34	0.246
59.56	1.027
59.78	0.925
60	0.718
60.22	0.067
60.44	1.264
60.66	0.517
60.88	0.069
61.1	0.035
61.32	0.011
61.54	0.001
61.76	1.086
61.98	0.066
62.2	0.224
62.42	0.926
62.64	0.502
62.86	0.349
63.08	0.179
63.3	0.169
63.52	0.067
63.74	0.367
63.96	0.153
64.18	0.571
64.4	0.258
64.62	0.606
64.84	0.17
65.06	0.007
65.28	0.387
65.5	0.325
65.72	0.17
65.94	0.793
66.16	0.373
66.38	0.409
66.6	1.082
66.82	0.441
67.04	0.049
67.26	0.028
67.48	0.009
67.7	0.107
67.92	0.074
68.14	0.382
68.36	0.193
68.58	0.116
68.8	0.071
69.02	0.009
69.24	0.106
69.46	0.116
69.68	0.046
69.9	0.146
70.12	0.098
70.34	0.068
70.56	0.149
70.78	0.04
71	0.159
71.22	0.29
71.44	0.093
71.66	0.126
71.88	0.124
72.1	1.331
72.32	0.834
72.54	1.795
72.76	1.063
72.98	0.046
73.2	0.41
73.42	0.303
73.64	0.078
73.86	0.154
74.08	0.134
74.3	0.278
74.52	0.137
74.74	0.034
74.96	0.022
75.18	0.453
75.4	0.239
75.62	0.009
75.84	0.22
76.06	0.361
76.28	0.236
76.5	0.438
76.72	0.449
76.94	0.127
77.16	0.192
77.38	0.084
77.6	0.001
77.82	0.053
78.04	0.233
78.26	0.188
78.48	0.736
78.7	0.305
78.92	0.01
79.14	0.306
79.36	0.481
79.58	0.189
79.8	0
80.02	0.013
80.24	0.06
80.46	0.304
80.68	0.184
80.9	0.279
81.12	0.519
81.34	0.386
81.56	0.089
81.78	0.282
82	0.276
82.22	0.063
82.44	0.239
82.66	0.24
82.88	0.39
83.1	1.16
83.32	0.266
83.54	0.022
83.76	0.669
83.98	1.043
84.2	0.585
84.42	0.039
84.64	0.636
84.86	0.623
85.08	0.072
85.3	0.028
85.52	0.037
85.74	0.282
85.96	0.221
86.18	0.16
86.4	0.103
86.62	0.205
86.84	0.231
87.06	1.015
87.28	0.782
87.5	0.333
87.72	0.152
87.94	0.333
88.16	0.615
88.38	0.019
88.6	0.581
88.82	0.195
89.04	0.152
89.26	0.235
89.48	0.056
89.7	0.111
89.92	0.039
