Measurement: Powder, Xray Data XY Processed
Mineral: Amesite
Rruff sample: R070132
Ideal chemistry: Mg_2_Al(AlSiO_5_)(OH)_4_
Locality: Saranovskii mine, Saranovskaya Village, Gornozavodskii area, Permskaya Oblast', Middle Urals, Russia
Source: Michael Scott
Description: Purple transparent hexagonal prisms, polytype 2H2
Diffraction sample description: Powder, cell parameters are from single crystal
Measured chemistry: (Mg_1.87_[box]_0.05_Cr_0.05_Fe^2+^_0.03_)_Σ=2_(Al_0.98_Cr_0.02_)_Σ=1_(Si_1.05_Al_0.95_)O_5_(OH)_4_ ; OH estimated by difference
Cell parameters: a: 5.281(1) b: 9.155(3) c: 14.008(6) alpha: 90.24(2) beta: 90.01(3) gamma: 90.04(1) volume: 677.2(3) crystal system: triclinic
x	intensity
5	0
5.22	13.0869
5.44	17.4726
5.66	24.4499
5.88	24.7908
6.1	58.1713
6.32	91.8265
6.54	22.0943
6.76	2.14117
6.98	21.5145
7.2	12.9871
7.42	3.85421
7.64	12.0976
7.86	20.3894
8.08	18.8268
8.3	13.3271
8.52	13.6123
8.74	3.8041
8.96	2.22275
9.18	15.6352
9.4	19.9003
9.62	23.3899
9.84	6.95327
10.06	16.4374
10.28	1.53313
10.5	0.208035
10.72	11.8562
10.94	0.495831
11.16	14.9444
11.38	62.5878
11.6	24.5747
11.82	7.49249
12.04	18.89
12.26	83.9925
12.48	804.547
12.7	457.838
12.92	51.2336
13.14	25.0304
13.36	32.9297
13.58	0.287201
13.8	1.8733
14.02	0.036789
14.24	32.5573
14.46	14.76
14.68	10.0461
14.9	7.51223
15.12	2.70871
15.34	17.2417
15.56	24.5381
15.78	10.738
16	0.383827
16.22	13.842
16.44	33.7917
16.66	9.62996
16.88	22.9436
17.1	19.3239
17.32	19.5847
17.54	9.03392
17.76	15.0492
17.98	11.6958
18.2	15.8909
18.42	11.9912
18.64	11.0306
18.86	214.291
19.08	20.308
19.3	47.13
19.52	18.429
19.74	31.5476
19.96	19.5115
20.18	30.4516
20.4	0.173836
20.62	14.6227
20.84	2.27846
21.06	4.16149
21.28	21.9849
21.5	9.19179
21.72	19.2477
21.94	3.68984
22.16	3.44001
22.38	5.89799
22.6	16.2119
22.82	47.3978
23.04	3.43697
23.26	35.2087
23.48	6.48221
23.7	7.24253
23.92	10.2037
24.14	1.84755
24.36	12.7353
24.58	11.2923
24.8	21.2409
25.02	55.9786
25.24	476.08
25.46	458.188
25.68	28.6071
25.9	29.7018
26.12	19.0586
26.34	10.5712
26.56	12.3066
26.78	15.823
27	12.3822
27.22	13.9501
27.44	17.335
27.66	15.9823
27.88	14.7455
28.1	4.60538
28.32	27.1287
28.54	19.0912
28.76	23.4291
28.98	24.2701
29.2	5.36101
29.42	23.2716
29.64	11.5197
29.86	35.8412
30.08	4.80795
30.3	0.624977
30.52	22.0232
30.74	23.9253
30.96	26.9834
31.18	8.85857
31.4	7.00224
31.62	79.3827
31.84	18.1042
32.06	17.0762
32.28	27.5808
32.5	9.41644
32.72	4.56214
32.94	2.01118
33.16	12.964
33.38	11.8614
33.6	13.4913
33.82	9.89759
34.04	9.6665
34.26	18.6946
34.48	53.2233
34.7	21.7434
34.92	15.6331
35.14	21.1165
35.36	16.0988
35.58	3.83467
35.8	17.5098
36.02	54.2253
36.24	104.741
36.46	29.495
36.68	13.319
36.9	17.8696
37.12	4.19509
37.34	4.69891
37.56	9.44359
37.78	1.097
38	18.8072
38.22	17.9514
38.44	106.397
38.66	25.9298
38.88	19.7455
39.1	23.5741
39.32	15.9955
39.54	4.43391
39.76	20.8202
39.98	16.5248
40.2	20.6523
40.42	0.357212
40.64	4.35577
40.86	2.65707
41.08	25.3827
41.3	13.7162
41.52	8.6083
41.74	8.67059
41.96	10.7211
42.18	10.1987
42.4	17.2974
42.62	41.0912
42.84	18.7362
43.06	21.0004
43.28	3.92622
43.5	4.90767
43.72	17.9583
43.94	3.1509
44.16	0.39473
44.38	7.29688
44.6	0.452381
44.82	11.6622
45.04	21.187
45.26	15.776
45.48	24.6883
45.7	6.65847
45.92	2.44524
46.14	2.43472
46.36	2.67879
46.58	0.790611
46.8	36.3708
47.02	49.585
47.24	52.253
47.46	46.5225
47.68	10.8675
47.9	3.10805
48.12	13.4823
48.34	3.56396
48.56	12.5764
48.78	5.26665
49	12.1702
49.22	6.01394
49.44	8.74656
49.66	3.90188
49.88	20.505
50.1	15.1022
50.32	13.8465
50.54	15.1622
50.76	0.921085
50.98	20.8422
51.2	6.83709
51.42	10.4099
51.64	8.47094
51.86	6.14034
52.08	29.2026
52.3	25.7887
52.52	20.5584
52.74	11.8886
52.96	18.0065
53.18	3.45171
53.4	1.38883
53.62	0.6
53.84	7.65633
54.06	0.624825
54.28	7.25232
54.5	18.2861
54.72	10.8501
54.94	6.67582
55.16	14.9942
55.38	16.3412
55.6	15.3288
55.82	20.6826
56.04	6.16877
56.26	0.192261
56.48	16.0541
56.7	15.5458
56.92	4.63524
57.14	12.2483
57.36	13.5077
57.58	29.2507
57.8	12.974
58.02	1.80934
58.24	5.66901
58.46	18.9814
58.68	11.4645
58.9	13.5874
59.12	24.8296
59.34	18.1281
59.56	12.0884
59.78	5.29101
60	7.49035
60.22	22.6061
60.44	37.0451
60.66	24.2132
60.88	4.25283
61.1	11.04
61.32	12.2607
61.54	8.85559
61.76	14.8325
61.98	0.680883
62.2	7.46349
62.42	7.16771
62.64	0.812124
62.86	8.81427
63.08	22.7163
63.3	16.988
63.52	19.2876
63.74	27.4281
63.96	10.6654
64.18	3.55862
64.4	4.50781
64.62	0.924835
64.84	3.60672
65.06	7.21015
65.28	4.55502
65.5	13.7076
65.72	10.4924
65.94	19.3495
66.16	9.30576
66.38	10.8983
66.6	8.36785
66.82	7.42255
67.04	8.75835
67.26	11.571
67.48	14.0785
67.7	13.2991
67.92	16.474
68.14	7.70916
68.36	0.959122
68.58	8.98789
68.8	1.05323
69.02	9.89687
69.24	7.3469
69.46	0.466949
69.68	13.4827
69.9	17.9014
70.12	16.2645
70.34	15.685
70.56	9.66455
70.78	4.69774
71	4.89526
71.22	3.27947
71.44	3.45391
71.66	8.72292
71.88	0.390263
72.1	8.23194
72.32	14.2857
72.54	13.7921
72.76	3.56209
72.98	2.22015
73.2	1.24477
73.42	4.23489
73.64	10.1126
73.86	4.21004
74.08	4.16793
74.3	22.7157
74.52	5.0685
74.74	14.5411
74.96	0.333492
75.18	1.0149
75.4	2.55357
75.62	3.65603
75.84	8.22205
76.06	9.64297
76.28	10.8491
76.5	10.2032
76.72	10.0998
76.94	21.533
77.16	17.644
77.38	4.61089
77.6	9.78218
77.82	5.03877
78.04	10.9326
78.26	12.6561
78.48	17.5831
78.7	16.6638
78.92	0.751263
79.14	10.813
79.36	3.38434
79.58	9.35812
79.8	14.2953
80.02	2.22341
80.24	12.378
80.46	3.7446
80.68	11.9187
80.9	13.8591
81.12	3.81096
81.34	5.60758
81.56	8.47737
81.78	4.285
82	10.1865
82.22	13.2416
82.44	11.573
82.66	11.1797
82.88	11.2029
83.1	16.1715
83.32	16.4939
83.54	3.46809
83.76	10.5706
83.98	12.8056
84.2	14.1574
84.42	11.7797
84.64	10.8169
84.86	4.67401
85.08	7.71852
85.3	14.7962
85.52	4.66857
85.74	12.0869
85.96	10.235
86.18	1.14495
86.4	7.09854
86.62	5.30804
86.84	7.87979
87.06	4.96315
87.28	0.290264
87.5	2.39314
87.72	4.34558
87.94	13.3822
88.16	4.37165
88.38	4.28201
88.6	9.99224
88.82	13.348
89.04	4.59122
89.26	12.7409
89.48	11.4842
89.7	6.2038
89.92	2.21062
