Measurement: Powder, Xray Data XY Processed
Mineral: Analcime
Rruff sample: R050094
Ideal chemistry: NaAlSi_2_O_6_H_2_O
Locality: Springfield, Oregon, USA
Source: Rock Currier
Description: Clear colorless single crystals associated with gmelinite
Diffraction sample description: Powder
Measured chemistry: (Na_0.99_[box]_0.01_)_Σ=1_(Si_2.01_Al_0.99_)O_6_·H_2_O
Cell parameters: a: 13.7180(4) b: 13.7180(4) c: 13.7209(5) alpha: 90. beta: 90. gamma: 90. volume: 2582.0(1) crystal system: tetragonal
x	intensity
5	0
5.22	16.0963
5.44	9.14553
5.66	10.3227
5.88	24.2129
6.1	19.8211
6.32	12.1646
6.54	8.94717
6.76	0.945694
6.98	2.92028
7.2	12.8009
7.42	7.65804
7.64	6.62636
7.86	3.91735
8.08	3.62788
8.3	1.96327
8.52	5.4929
8.74	8.00296
8.96	2.97888
9.18	9.85724
9.4	5.81057
9.62	1.79558
9.84	5.48417
10.06	3.47101
10.28	1.43037
10.5	10.341
10.72	2.71663
10.94	10.8408
11.16	2.25618
11.38	4.37675
11.6	8.42984
11.82	9.55905
12.04	7.52533
12.26	0.581628
12.48	2.68167
12.7	2.85768
12.92	24.9061
13.14	8.28314
13.36	2.89078
13.58	10.4274
13.8	4.31412
14.02	10.1719
14.24	14.8551
14.46	6.50121
14.68	6.10428
14.9	3.36707
15.12	12.2107
15.34	6.85007
15.56	12.9832
15.78	789.876
16	46.5254
16.22	11.3542
16.44	4.60401
16.66	12.07
16.88	4.582
17.1	6.91106
17.32	15.1759
17.54	2.37332
17.76	2.77544
17.98	0.84532
18.2	39.0498
18.42	8.72399
18.64	2.98871
18.86	6.21685
19.08	6.26979
19.3	7.27117
19.52	5.46293
19.74	5.79276
19.96	0.02048
20.18	6.04039
20.4	0.161004
20.62	2.21487
20.84	0.128913
21.06	4.36734
21.28	10.4775
21.5	1.49544
21.72	0.378256
21.94	3.51207
22.16	5.35071
22.38	2.87046
22.6	7.52461
22.82	2.42455
23.04	7.91577
23.26	7.34361
23.48	12.7218
23.7	2.34817
23.92	10.7795
24.14	9.25788
24.36	27.3685
24.58	3.72322
24.8	1.89611
25.02	2.9047
25.24	7.2673
25.46	7.88986
25.68	8.79534
25.9	562.72
26.12	108.138
26.34	13.1347
26.56	6.42914
26.78	0.289928
27	3.77501
27.22	14.6713
27.44	9.29776
27.66	15.0831
27.88	0.602434
28.1	7.89819
28.32	9.79231
28.54	0.294313
28.76	5.03979
28.98	1.73256
29.2	12.6578
29.42	6.39886
29.64	4.18649
29.86	1.18164
30.08	0.238858
30.3	22.6802
30.52	724.19
30.74	42.0941
30.96	7.15258
31.18	9.15974
31.4	4.4796
31.62	0.012328
31.84	18.4802
32.06	24.673
32.28	3.87813
32.5	7.14893
32.72	5.82188
32.94	3.12726
33.16	19.3306
33.38	115.729
33.6	4.0541
33.82	2.82235
34.04	7.08913
34.26	0.776332
34.48	3.4565
34.7	6.61882
34.92	5.66566
35.14	15.5044
35.36	7.09198
35.58	6.91476
35.8	201.616
36.02	18.5188
36.24	0.359604
36.46	6.71669
36.68	0.577394
36.9	7.65358
37.12	52.1083
37.34	6.79905
37.56	1.75279
37.78	5.18376
38	2.47048
38.22	10.8579
38.44	9.24746
38.66	0.358379
38.88	7.44345
39.1	3.46933
39.32	3.41415
39.54	7.93844
39.76	7.62535
39.98	1.35847
40.2	2.56197
40.42	10.352
40.64	47.2312
40.86	10.1978
41.08	4.22073
41.3	7.99432
41.52	1.24042
41.74	8.28708
41.96	2.63797
42.18	6.71441
42.4	3.53659
42.62	10.6229
42.84	12.9237
43.06	9.00345
43.28	5.99536
43.5	10.0716
43.72	4.14827
43.94	0.96571
44.16	1.97544
44.38	3.80953
44.6	13.9604
44.82	1.43172
45.04	6.16027
45.26	0.880682
45.48	6.77277
45.7	0.547026
45.92	8.24309
46.14	1.06291
46.36	4.00954
46.58	5.70242
46.8	9.26873
47.02	3.80076
47.24	2.32389
47.46	2.07072
47.68	18.8535
47.9	59.7229
48.12	4.91889
48.34	6.15283
48.56	5.1897
48.78	51.3587
49	3.73843
49.22	7.14211
49.44	2.44676
49.66	10.0094
49.88	3.31753
50.1	11.6376
50.32	4.25359
50.54	7.49596
50.76	5.49517
50.98	9.79251
51.2	11.6175
51.42	5.45236
51.64	8.12326
51.86	4.2049
52.08	2.7592
52.3	6.44747
52.52	97.3806
52.74	20.8634
52.96	2.37854
53.18	6.45451
53.4	35.1432
53.62	4.48484
53.84	2.6205
54.06	0.656663
54.28	70.8134
54.5	16.9417
54.72	12.6574
54.94	8.81931
55.16	30.0487
55.38	17.351
55.6	4.96882
55.82	1.17067
56.04	8.91274
56.26	9.01744
56.48	7.12148
56.7	1.97178
56.92	31.1059
57.14	8.67328
57.36	11.0993
57.58	11.1135
57.8	56.0807
58.02	11.909
58.24	9.01685
58.46	2.77023
58.68	4.26274
58.9	3.5873
59.12	1.16288
59.34	4.85701
59.56	3.17098
59.78	2.01066
60	1.87433
60.22	6.15665
60.44	4.29162
60.66	9.28444
60.88	1.86281
61.1	5.08899
61.32	0.957185
61.54	1.80824
61.76	10.5152
61.98	27.2919
62.2	7.01112
62.42	5.03191
62.64	9.40809
62.86	21.6506
63.08	1.58918
63.3	3.57577
63.52	9.52181
63.74	9.47808
63.96	5.52502
64.18	4.81402
64.4	26.0969
64.62	9.89777
64.84	4.01412
65.06	4.14498
65.28	0.014602
65.5	2.54205
65.72	12.6342
65.94	62.6843
66.16	33.1554
66.38	13.2737
66.6	7.15589
66.82	15.1187
67.04	14.9829
67.26	3.81171
67.48	14.5695
67.7	8.21674
67.92	0.509974
68.14	7.25509
68.36	12.9278
68.58	6.73085
68.8	2.46523
69.02	51.1799
69.24	29.4921
69.46	6.83689
69.68	3.12556
69.9	4.5764
70.12	5.85302
70.34	1.2869
70.56	4.87715
70.78	8.44644
71	4.31324
71.22	5.49247
71.44	11.6955
71.66	8.59359
71.88	4.72338
72.1	17.7984
72.32	13.5334
72.54	5.4198
72.76	4.28101
72.98	2.66789
73.2	0.576761
73.42	5.53134
73.64	20.7979
73.86	11.7437
74.08	4.42354
74.3	0.826507
74.52	2.00519
74.74	0.897001
74.96	0.228237
75.18	21.3256
75.4	8.43196
75.62	4.60065
75.84	0.605154
76.06	1.58969
76.28	3.65975
76.5	4.9995
76.72	1.24617
76.94	6.26807
77.16	2.47205
77.38	8.51912
77.6	4.72451
77.82	7.87396
78.04	14.3845
78.26	19.8868
78.48	19.8687
78.7	4.10448
78.92	12.0312
79.14	9.10953
79.36	6.32094
79.58	4.32947
79.8	5.3201
80.02	0.056928
80.24	6.17685
80.46	2.10088
80.68	7.47708
80.9	4.3635
81.12	23.2309
81.34	11.1922
81.56	7.09456
81.78	5.98165
82	5.16695
82.22	4.41532
82.44	11.5935
82.66	11.6652
82.88	0.806403
83.1	1.02152
83.32	6.20713
83.54	11.3542
83.76	7.53915
83.98	9.64146
84.2	11.7103
84.42	7.56257
84.64	4.34082
84.86	7.22766
85.08	0.200581
85.3	1.05634
85.52	4.91468
85.74	1.74552
85.96	6.58099
86.18	5.42999
86.4	0.351396
86.62	5.4142
86.84	17.4702
87.06	15.9296
87.28	6.84954
87.5	4.00828
87.72	3.26906
87.94	10.4599
88.16	2.99259
88.38	4.24853
88.6	4.41584
88.82	3.42785
89.04	9.78848
89.26	4.62555
89.48	7.65827
89.7	5.84854
89.92	3.73436
