Measurement: Powder, Xray Data XY Processed
Mineral: Analcime
Rruff sample: R060023
Ideal chemistry: NaAlSi_2_O_6_H_2_O
Locality: Dallas, Oregon, USA
Source: Bob Downs
Description: White trapezohedral crystal associated with levyne-Na, R060021
Diffraction sample description: Powder
Measured chemistry: (Na_0.98_[box]_0.02_)_Σ=1_(Si_2.02_Al_0.98_)O_6_·H_2_O
Cell parameters: a: 13.7213(7) b: 13.7213(7) c: 13.722(2) alpha: 90 beta: 90 gamma: 90 volume: 2583.6(0) crystal system: tetragonal
x	intensity
5	0
5.22	10.0531
5.44	18.2037
5.66	14.4033
5.88	11.2763
6.1	11.4489
6.32	0.271362
6.54	8.14785
6.76	10.419
6.98	13.5447
7.2	8.70622
7.42	4.7922
7.64	10.4194
7.86	9.30896
8.08	8.90631
8.3	3.88245
8.52	7.26257
8.74	7.3461
8.96	10.3585
9.18	10.4913
9.4	7.47619
9.62	6.21544
9.84	12.6873
10.06	4.22346
10.28	6.74692
10.5	3.48491
10.72	7.74747
10.94	1.86435
11.16	5.74984
11.38	4.82404
11.6	3.74153
11.82	6.71367
12.04	14.9024
12.26	12.0397
12.48	4.05355
12.7	9.38086
12.92	12.4863
13.14	4.83398
13.36	10.7185
13.58	0.004311
13.8	4.06301
14.02	4.15236
14.24	4.97812
14.46	6.56618
14.68	4.31589
14.9	6.95962
15.12	0.452681
15.34	11.1871
15.56	13.8164
15.78	115.709
16	61.6184
16.22	1.41704
16.44	9.57472
16.66	6.79956
16.88	7.24052
17.1	5.62106
17.32	11.9129
17.54	2.74092
17.76	6.6797
17.98	4.0122
18.2	4.25178
18.42	74.451
18.64	7.77572
18.86	2.9373
19.08	2.4432
19.3	5.51574
19.52	0.379262
19.74	3.07303
19.96	2.34868
20.18	2.46084
20.4	8.59491
20.62	3.48638
20.84	0.626615
21.06	2.97539
21.28	0.782234
21.5	6.00609
21.72	4.04181
21.94	7.289
22.16	3.52077
22.38	7.3534
22.6	6.38044
22.82	3.30261
23.04	5.16836
23.26	0.126113
23.48	30.4329
23.7	4.78518
23.92	6.06665
24.14	3.48579
24.36	74.5884
24.58	1.89402
24.8	7.39572
25.02	2.76613
25.24	3.13566
25.46	10.6948
25.68	12.5554
25.9	118.314
26.12	548.776
26.34	14.9741
26.56	9.24373
26.78	6.51586
27	3.82178
27.22	1.19317
27.44	8.00126
27.66	8.65128
27.88	6.04622
28.1	7.22291
28.32	5.53741
28.54	2.56567
28.76	8.57483
28.98	3.62902
29.2	13.6428
29.42	7.56648
29.64	6.42568
29.86	9.89435
30.08	8.75294
30.3	15.6784
30.52	129.889
30.74	112.534
30.96	10.4976
31.18	9.49701
31.4	7.875
31.62	1.00874
31.84	8.27884
32.06	50.5868
32.28	1.88031
32.5	2.97413
32.72	6.18376
32.94	10.2904
33.16	5.90923
33.38	162.705
33.6	12.8808
33.82	11.776
34.04	2.10355
34.26	10.4723
34.48	2.58348
34.7	0.529047
34.92	14.4152
35.14	1.33096
35.36	9.14143
35.58	6.69184
35.8	52.2266
36.02	95.084
36.24	3.97481
36.46	7.75583
36.68	0.362407
36.9	1.22941
37.12	114.009
37.34	3.1983
37.56	2.52291
37.78	3.71724
38	0.003746
38.22	5.04118
38.44	8.16437
38.66	5.54633
38.88	0.879092
39.1	1.78992
39.32	3.42966
39.54	6.26986
39.76	0.184595
39.98	4.21733
40.2	2.14094
40.42	15.9583
40.64	49.8726
40.86	7.92347
41.08	3.93403
41.3	1.6279
41.52	1.06177
41.74	11.9537
41.96	2.09714
42.18	1.33584
42.4	7.10729
42.62	4.12367
42.84	6.06839
43.06	4.14294
43.28	9.1925
43.5	3.12364
43.72	4.16671
43.94	5.01818
44.16	6.26274
44.38	4.28505
44.6	0.318981
44.82	17.5874
45.04	2.03444
45.26	7.18315
45.48	7.50627
45.7	2.14807
45.92	0.964264
46.14	1.97427
46.36	7.73217
46.58	2.20758
46.8	6.73521
47.02	13.1353
47.24	8.58142
47.46	10.8554
47.68	10.4059
47.9	78.7528
48.12	10.7241
48.34	2.00871
48.56	2.95505
48.78	64.9917
49	20.3978
49.22	1.00022
49.44	1.48773
49.66	6.84645
49.88	16.5025
50.1	2.00787
50.32	4.59449
50.54	0.064541
50.76	10.1157
50.98	1.37931
51.2	4.51307
51.42	0.644373
51.64	1.89403
51.86	2.58029
52.08	6.39791
52.3	20.7804
52.52	170.112
52.74	62.1211
52.96	2.98732
53.18	0.497917
53.4	41.9336
53.62	21.2313
53.84	2.67118
54.06	8.79885
54.28	44.9401
54.5	47.1332
54.72	1.43242
54.94	8.917
55.16	10.8565
55.38	14.1973
55.6	7.66005
55.82	5.80991
56.04	0.399574
56.26	0.565289
56.48	2.47488
56.7	0.510093
56.92	16.4689
57.14	15.3111
57.36	7.40942
57.58	13.2748
57.8	47.4551
58.02	23.4704
58.24	4.79181
58.46	3.04984
58.68	6.17456
58.9	3.43864
59.12	3.88478
59.34	4.0644
59.56	9.19689
59.78	1.37914
60	5.56208
60.22	3.556
60.44	9.44356
60.66	7.21871
60.88	4.05015
61.1	0.192351
61.32	4.61033
61.54	8.15118
61.76	4.91354
61.98	21.656
62.2	16.6012
62.42	1.34849
62.64	6.10732
62.86	22.0029
63.08	11.4948
63.3	2.60372
63.52	3.71469
63.74	19.0533
63.96	4.44083
64.18	3.62391
64.4	16.7649
64.62	9.71063
64.84	7.73265
65.06	0.71808
65.28	6.55462
65.5	1.49009
65.72	2.35061
65.94	44.2331
66.16	40.953
66.38	6.68234
66.6	2.46855
66.82	11.6552
67.04	6.25887
67.26	6.03471
67.48	0.811653
67.7	2.83287
67.92	13.2152
68.14	1.03118
68.36	21.7729
68.58	8.64467
68.8	1.5549
69.02	24.4775
69.24	27.312
69.46	13.8037
69.68	0.075422
69.9	5.35298
70.12	5.7758
70.34	1.14671
70.56	0.694583
70.78	1.97699
71	0.184906
71.22	8.38311
71.44	4.59381
71.66	1.53053
71.88	2.55421
72.1	5.49925
72.32	22.4759
72.54	6.98176
72.76	1.78358
72.98	0.458749
73.2	10.3704
73.42	1.18947
73.64	15.1379
73.86	24.0187
74.08	8.86685
74.3	3.50868
74.52	6.46025
74.74	1.56596
74.96	1.77839
75.18	18.0812
75.4	12.2404
75.62	8.39552
75.84	3.67557
76.06	5.88912
76.28	6.33263
76.5	3.47937
76.72	7.70877
76.94	10.6841
77.16	6.55506
77.38	3.5739
77.6	4.20093
77.82	3.28836
78.04	19.2742
78.26	53.338
78.48	25.3859
78.7	10.629
78.92	10.7146
79.14	9.03442
79.36	1.2504
79.58	0.526623
79.8	10.5512
80.02	2.5749
80.24	4.51822
80.46	3.49332
80.68	10.3803
80.9	12.2241
81.12	22.7264
81.34	16.6402
81.56	2.35124
81.78	1.11088
82	0.714174
82.22	0.532909
82.44	6.67697
82.66	13.8229
82.88	11.964
83.1	6.18845
83.32	1.38556
83.54	6.68959
83.76	9.01936
83.98	6.29535
84.2	3.43136
84.42	0.335933
84.64	7.24489
84.86	6.14986
85.08	2.36261
85.3	5.18712
85.52	7.98099
85.74	5.85886
85.96	4.53445
86.18	5.27369
86.4	6.1284
86.62	2.09691
86.84	15.2325
87.06	11.3965
87.28	16.4534
87.5	2.36949
87.72	0.367682
87.94	7.97791
88.16	0.359287
88.38	4.54974
88.6	7.64383
88.82	5.66542
89.04	1.18356
89.26	3.88097
89.48	11.7896
89.7	0.88728
89.92	5.52369
