Measurement: Powder, Xray Data XY Processed
Mineral: Anapaite
Rruff sample: R050510
Ideal chemistry: Ca_2_Fe^2+^(PO_4_)_2_4H_2_O
Locality: Prats-Sampsor, Spain
Source: University of Arizona Mineral Museum
Description: Pale green tabular crystals lining fractured rock. Probe photo shows two phases. This sample is the lighter phase in the probe photo.
Diffraction sample description: Powder includes light and dark phases. Cell parameters from single crystal
Measured chemistry: Ca_2.00_(Fe^2+^_0.93_Mn_0.07_)_Σ=1_(P_1.00_O_4_)_2_·4H_2_O; (lighter phase)
Cell parameters: a: 6.442(3) b: 6.806(3) c: 5.895(2) alpha: 101.65(2) beta: 104.27(2) gamma: 70.77(2) volume: 234.45(6) crystal system: triclinic
x	intensity
5	0
5.22	14.0827
5.44	20.2274
5.66	16.4972
5.88	14.3479
6.1	16.3916
6.32	13.0659
6.54	12.8743
6.76	10.337
6.98	10.7412
7.2	21.0991
7.42	11.3441
7.64	5.86711
7.86	15.2294
8.08	19.5818
8.3	21.0318
8.52	3.91784
8.74	12.5498
8.96	5.60144
9.18	5.93872
9.4	4.02041
9.62	18.378
9.84	11.5691
10.06	7.45687
10.28	4.41572
10.5	9.15708
10.72	13.052
10.94	24.3196
11.16	17.356
11.38	6.96951
11.6	8.37468
11.82	14.3582
12.04	5.44691
12.26	16.6292
12.48	6.42609
12.7	10.4711
12.92	9.06634
13.14	1.83401
13.36	2.12118
13.58	6.92061
13.8	3.68661
14.02	16.0088
14.24	11.059
14.46	3.58195
14.68	18.3058
14.9	33.7308
15.12	22.8216
15.34	9.01395
15.56	15.6944
15.78	12.2665
16	1.06761
16.22	0.054497
16.44	10.8083
16.66	1.32524
16.88	21.9222
17.1	27.0606
17.32	1.81291
17.54	9.84086
17.76	3.26545
17.98	5.04856
18.2	0.527256
18.42	6.42946
18.64	6.36832
18.86	7.4827
19.08	15.993
19.3	14.7806
19.52	28.7621
19.74	17.9002
19.96	13.3457
20.18	30.1621
20.4	0.329681
20.62	15.5609
20.84	1.09699
21.06	7.21259
21.28	8.02337
21.5	17.5506
21.72	7.98122
21.94	8.84327
22.16	7.36164
22.38	27.7182
22.6	0.588261
22.82	11.676
23.04	26.8595
23.26	34.5107
23.48	21.9463
23.7	124.507
23.92	5.32031
24.14	4.32779
24.36	13.5976
24.58	11.1867
24.8	32.3924
25.02	10.6224
25.24	27.4806
25.46	14.1411
25.68	5.28596
25.9	13.6992
26.12	20.7659
26.34	61.8876
26.56	1.13675
26.78	13.362
27	0.191372
27.22	20.4038
27.44	7.86246
27.66	9.9368
27.88	9.50467
28.1	30.258
28.32	110.008
28.54	26.0058
28.76	11.6551
28.98	0.555973
29.2	47.3582
29.42	7.36261
29.64	8.01308
29.86	8.9098
30.08	16.3946
30.3	16.5772
30.52	2.28924
30.74	1.93515
30.96	60.0454
31.18	26.659
31.4	17.041
31.62	24.7353
31.84	3.29379
32.06	11.6329
32.28	49.3657
32.5	17.7121
32.72	6.85184
32.94	50.0267
33.16	18.2961
33.38	14.3455
33.6	3.19984
33.82	32.4765
34.04	80.6656
34.26	19.0202
34.48	8.85443
34.7	23.7853
34.92	7.90193
35.14	5.8346
35.36	23.6989
35.58	14.5565
35.8	20.4914
36.02	3.72575
36.24	14.5146
36.46	23.1974
36.68	56.401
36.9	43.833
37.12	16.9253
37.34	4.85778
37.56	9.41067
37.78	9.71013
38	14.9248
38.22	14.3792
38.44	10.4017
38.66	12.0142
38.88	11.619
39.1	6.99247
39.32	20.1609
39.54	27.6249
39.76	53.3236
39.98	14.5231
40.2	38.6063
40.42	19.5065
40.64	30.5529
40.86	2.1796
41.08	3.81677
41.3	21.7292
41.52	10.099
41.74	5.884
41.96	11.111
42.18	20.3004
42.4	13.0967
42.62	8.10425
42.84	12.9578
43.06	24.8348
43.28	19.0705
43.5	35.0521
43.72	15.8406
43.94	7.77585
44.16	9.52187
44.38	13.4962
44.6	14.3374
44.82	4.43551
45.04	23.9295
45.26	19.3849
45.48	42.9291
45.7	57.3289
45.92	1.68108
46.14	8.91253
46.36	23.4707
46.58	17.0887
46.8	6.39673
47.02	2.54789
47.24	3.8909
47.46	20.2225
47.68	19.974
47.9	1.36407
48.12	27.0553
48.34	31.1863
48.56	19.4206
48.78	25.0097
49	15.5304
49.22	16.005
49.44	18.0926
49.66	4.92715
49.88	16.7091
50.1	25.7289
50.32	24.2784
50.54	3.41401
50.76	18.422
50.98	40.1664
51.2	17.0771
51.42	32.6989
51.64	11.74
51.86	6.36916
52.08	15.382
52.3	18.1487
52.52	8.51427
52.74	11.9504
52.96	22.6112
53.18	18.0545
53.4	23.7901
53.62	18.4675
53.84	4.78785
54.06	23.358
54.28	21.4636
54.5	10.3808
54.72	9.3179
54.94	10.8504
55.16	44.4293
55.38	11.5173
55.6	6.76899
55.82	11.2682
56.04	16.0985
56.26	9.07069
56.48	16.8388
56.7	31.6259
56.92	25.3464
57.14	8.88958
57.36	2.60592
57.58	11.3331
57.8	8.78992
58.02	18.488
58.24	17.1158
58.46	22.4214
58.68	9.79049
58.9	14.945
59.12	6.38215
59.34	20.5743
59.56	7.71889
59.78	8.84471
60	8.18672
60.22	5.94564
60.44	16.7015
60.66	14.6052
60.88	15.6681
61.1	16.7376
61.32	7.41242
61.54	0.326836
61.76	7.55901
61.98	29.6855
62.2	11.0479
62.42	4.22793
62.64	28.0376
62.86	25.5503
63.08	16.8949
63.3	4.85292
63.52	13.0849
63.74	18.7066
63.96	1.44899
64.18	2.43145
64.4	15.538
64.62	16.2117
64.84	27.1225
65.06	21.0627
65.28	2.76709
65.5	13.6954
65.72	16.9005
65.94	10.2462
66.16	15.5589
66.38	15.7489
66.6	7.12824
66.82	2.49374
67.04	10.2977
67.26	15.4544
67.48	8.19893
67.7	24.678
67.92	16.2785
68.14	17.3323
68.36	18.1317
68.58	21.9763
68.8	12.0752
69.02	17.0613
69.24	5.11669
69.46	18.971
69.68	19.4383
69.9	0.202969
70.12	3.88527
70.34	12.7751
70.56	10.8273
70.78	19.2261
71	8.33645
71.22	27.5399
71.44	10.1496
71.66	4.69661
71.88	20.9991
72.1	10.1798
72.32	15.7564
72.54	27.7192
72.76	16.2699
72.98	1.20856
73.2	14.8288
73.42	4.04314
73.64	12.5076
73.86	16.3478
74.08	16.1394
74.3	6.12429
74.52	16.1574
74.74	12.2804
74.96	17.405
75.18	10.8616
75.4	12.8626
75.62	12.8807
75.84	7.27728
76.06	10.2228
76.28	22.254
76.5	18.0037
76.72	11.2983
76.94	10.4563
77.16	11.9495
77.38	11.665
77.6	5.86424
77.82	18.2744
78.04	17.3748
78.26	26.8263
78.48	2.00636
78.7	10.1375
78.92	14.3826
79.14	15.9254
79.36	12.5599
79.58	12.5916
79.8	18.7085
80.02	7.15852
80.24	9.03263
80.46	14.0981
80.68	19.5204
80.9	8.68989
81.12	6.10445
81.34	18.9294
81.56	20.0917
81.78	21.2483
82	6.78236
82.22	6.98865
82.44	13.6129
82.66	20.8397
82.88	15.9057
83.1	13.7933
83.32	16.9832
83.54	10.719
83.76	18.5483
83.98	9.94967
84.2	18.0029
84.42	15.5432
84.64	14.4856
84.86	0.602661
85.08	18.1705
85.3	17.2057
85.52	15.5699
85.74	9.20167
85.96	8.9991
86.18	10.4491
86.4	14.1204
86.62	14.0262
86.84	16.574
87.06	4.74062
87.28	5.00983
87.5	24.2523
87.72	14.896
87.94	1.64249
88.16	16.5153
88.38	0.84827
88.6	9.93223
88.82	13.8463
89.04	4.72544
89.26	12.708
89.48	12.9286
89.7	0.276222
89.92	1.78913
