Measurement: Powder, Xray Data XY Processed
Mineral: Andradite
Rruff sample: R050256
Ideal chemistry: Ca_3_Fe^3+^_2_(SiO_4_)_3_
Locality: Franklin, Sussex County, New Jersey, USA
Source: Marcus Origlieri
Description: Reddish brown fragments
Diffraction sample description: Powder
Measured chemistry: (Ca_2.27_Mn_0.73_)_Σ=3_(Fe^3+^_1.35_Al_0.65_)_Σ=2_(Si_1.00_O_4_)_3_
Cell parameters: a: 11.9411(2) b: 11.9411(2) c: 11.9411(2) alpha: 90 beta: 90 gamma: 90 volume: 1702.68(9) crystal system: cubic
x	intensity
5	0
5.22	0.494
5.44	6.702
5.66	8.001
5.88	15.824
6.1	12.923
6.32	23.957
6.54	8.103
6.76	23.303
6.98	29.762
7.2	25.645
7.42	9.735
7.64	13.477
7.86	21.194
8.08	21.42
8.3	22.284
8.52	10.208
8.74	6.2
8.96	2.588
9.18	5.069
9.4	31.558
9.62	15.022
9.84	15.422
10.06	20.69
10.28	2.264
10.5	2.608
10.72	3.046
10.94	5.027
11.16	23.611
11.38	3.419
11.6	17.652
11.82	18.796
12.04	6.936
12.26	10.746
12.48	9.624
12.7	8.107
12.92	0.45
13.14	2.321
13.36	15.863
13.58	6.064
13.8	1.238
14.02	20.392
14.24	2.372
14.46	14.008
14.68	1.675
14.9	16.685
15.12	16.044
15.34	8.227
15.56	9.639
15.78	28.375
16	12.591
16.22	12.082
16.44	3.108
16.66	20.138
16.88	14.551
17.1	13.506
17.32	15.616
17.54	17.055
17.76	21.714
17.98	28.626
18.2	3.944
18.42	16.371
18.64	21.987
18.86	18.007
19.08	19.961
19.3	17.447
19.52	10.087
19.74	21.944
19.96	24.387
20.18	13.27
20.4	4.706
20.62	21.547
20.84	18.897
21.06	39.889
21.28	3.665
21.5	3.372
21.72	0.769
21.94	4.47
22.16	9.114
22.38	31.078
22.6	23.9
22.82	10.526
23.04	7.513
23.26	18.877
23.48	20.584
23.7	12.102
23.92	18.541
24.14	0.411
24.36	0.219
24.58	28.409
24.8	11.128
25.02	13.549
25.24	7.67
25.46	3.64
25.68	23.334
25.9	5.969
26.12	12.004
26.34	20.199
26.56	3.541
26.78	25.617
27	29.796
27.22	14.172
27.44	7.431
27.66	6.157
27.88	7.492
28.1	13.257
28.32	15.881
28.54	18.997
28.76	11.518
28.98	6.986
29.2	23.697
29.42	7.702
29.64	13.306
29.86	60.337
30.08	40.644
30.3	17.797
30.52	3.305
30.74	15.873
30.96	14.27
31.18	14.543
31.4	11.687
31.62	15.613
31.84	16.264
32.06	18.709
32.28	8.297
32.5	12.805
32.72	19.728
32.94	18.953
33.16	6.159
33.38	33.027
33.6	396.142
33.82	35.376
34.04	17.73
34.26	18.844
34.48	13.862
34.7	22.401
34.92	21.101
35.14	8.347
35.36	33.49
35.58	4.018
35.8	29.689
36.02	20.235
36.24	12.689
36.46	13.377
36.68	7.099
36.9	220.933
37.12	38.553
37.34	8.044
37.56	10.289
37.78	16.995
38	13.909
38.22	29.218
38.44	115.647
38.66	19.195
38.88	6.227
39.1	23.504
39.32	1.433
39.54	17.792
39.76	12.836
39.98	8.806
40.2	12.455
40.42	1.766
40.64	0.072
40.86	8.265
41.08	17.793
41.3	8.646
41.52	70.61
41.74	20.645
41.96	24.952
42.18	11.214
42.4	4.674
42.62	8.022
42.84	2.494
43.06	7.712
43.28	16.213
43.5	20.729
43.72	17.087
43.94	18.635
44.16	5.557
44.38	16.12
44.6	11.358
44.82	15.636
45.04	4.503
45.26	7.78
45.48	13.645
45.7	14.177
45.92	5.115
46.14	8.631
46.36	20.079
46.58	33.365
46.8	19.154
47.02	83.971
47.24	6.219
47.46	14.581
47.68	27.763
47.9	19.976
48.12	7.375
48.34	21.726
48.56	10.919
48.78	13.941
49	28.175
49.22	14.604
49.44	18.422
49.66	10.24
49.88	5.01
50.1	7.952
50.32	4.474
50.54	27.284
50.76	4.014
50.98	7.72
51.2	7.985
51.42	15.798
51.64	12.524
51.86	9.494
52.08	1.884
52.3	15.028
52.52	2.18
52.74	18.28
52.96	7.791
53.18	19.526
53.4	7.912
53.62	19.074
53.84	21.342
54.06	15.005
54.28	24.708
54.5	8.806
54.72	15.607
54.94	25.169
55.16	21.138
55.38	41.023
55.6	96.691
55.82	2.904
56.04	9.694
56.26	16.098
56.48	14.169
56.7	3.252
56.92	3.615
57.14	0.504
57.36	4.922
57.58	28.565
57.8	91.315
58.02	21.856
58.24	17.165
58.46	13.762
58.68	21.641
58.9	28.875
59.12	13.899
59.34	13.122
59.56	7.17
59.78	25.311
60	6.865
60.22	34.182
60.44	16.21
60.66	16.795
60.88	15.489
61.1	20.106
61.32	15.822
61.54	7.733
61.76	24.598
61.98	12.623
62.2	39.625
62.42	38.821
62.64	12.194
62.86	6.541
63.08	17.063
63.3	21.412
63.52	24.019
63.74	16.374
63.96	17.958
64.18	1.289
64.4	15.041
64.62	8.742
64.84	18.071
65.06	15.264
65.28	8.779
65.5	15.219
65.72	21.329
65.94	22.575
66.16	15.353
66.38	14.522
66.6	15.742
66.82	12.178
67.04	13.013
67.26	2.505
67.48	0.574
67.7	24.719
67.92	12.76
68.14	14.668
68.36	23.722
68.58	19.96
68.8	3.604
69.02	1.261
69.24	19.019
69.46	15.986
69.68	20.678
69.9	9.615
70.12	5.125
70.34	29.158
70.56	36.748
70.78	18.25
71	7.772
71.22	23.128
71.44	8.084
71.66	16.16
71.88	2.328
72.1	4.405
72.32	19.444
72.54	68.982
72.76	18.074
72.98	19.299
73.2	7.551
73.42	11.986
73.64	21.479
73.86	19.926
74.08	2.591
74.3	15.557
74.52	32.008
74.74	25.964
74.96	5.393
75.18	16.294
75.4	5.699
75.62	9.707
75.84	12.46
76.06	22.42
76.28	11.265
76.5	4.739
76.72	17.597
76.94	14.807
77.16	9.996
77.38	23.01
77.6	4.173
77.82	26.559
78.04	7.456
78.26	9.349
78.48	20.406
78.7	14.481
78.92	8.877
79.14	22.872
79.36	21.221
79.58	3.929
79.8	6.095
80.02	23.177
80.24	11.463
80.46	12.544
80.68	18.623
80.9	17.601
81.12	2.854
81.34	30.574
81.56	7.615
81.78	1.004
82	15.558
82.22	17.499
82.44	25.437
82.66	1.815
82.88	4.569
83.1	35.995
83.32	12.57
83.54	18.367
83.76	24.677
83.98	23.147
84.2	5.037
84.42	14.619
84.64	26.059
84.86	5.224
85.08	3.836
85.3	10.155
85.52	8.672
85.74	5.556
85.96	11.673
86.18	13.485
86.4	9.571
86.62	6.668
86.84	2.335
87.06	7.715
87.28	5.83
87.5	10.078
87.72	9.703
87.94	23.632
88.16	10.268
88.38	45.686
88.6	12.835
88.82	17.859
89.04	26.302
89.26	8.935
89.48	11.186
89.7	25.207
89.92	33.395
