Measurement: Powder, Xray Data XY Processed
Mineral: Andradite
Rruff sample: R060449
Ideal chemistry: Ca_3_Fe^3+^_2_(SiO_4_)_3_
Locality: Namibia
Source: Gemological Institute of America
Description: Blue fragment, variety demantoid
Diffraction sample description: Powder
Measured chemistry: Ca_3.00_(Fe^3+^_1.93_Al_0.07_)_Î£=2_(Si_1.00_O_4_)_3__
Cell parameters: a: 12.0646(2) b: 12.0646(2) c: 12.0646(2) alpha: 90. beta: 90. gamma: 90. volume: 1756.06(8) crystal system: cubic
x	intensity
5	0
5.22	14.252
5.44	15.605
5.66	3.285
5.88	15.011
6.1	4.24
6.32	12.432
6.54	8.654
6.76	20.231
6.98	14.029
7.2	19.695
7.42	6.589
7.64	13.894
7.86	21.922
8.08	7.671
8.3	11.772
8.52	1.677
8.74	6.952
8.96	9.645
9.18	23.272
9.4	7.652
9.62	17.544
9.84	5.273
10.06	16.358
10.28	18.896
10.5	5.179
10.72	15.949
10.94	2.681
11.16	3.164
11.38	7.031
11.6	13.873
11.82	4.771
12.04	14.25
12.26	13.865
12.48	20.053
12.7	15.414
12.92	0.432
13.14	5.489
13.36	18.197
13.58	9.416
13.8	11.733
14.02	0.104
14.24	11.274
14.46	8.329
14.68	20.368
14.9	1.934
15.12	16.76
15.34	6.225
15.56	18.005
15.78	12.101
16	14.65
16.22	16.224
16.44	6.096
16.66	22.709
16.88	7.147
17.1	11.121
17.32	0.598
17.54	17.467
17.76	10.624
17.98	7.718
18.2	16.96
18.42	6.196
18.64	3.258
18.86	8.029
19.08	7.981
19.3	3.408
19.52	14.615
19.74	1.356
19.96	11.168
20.18	12.29
20.4	6.447
20.62	24.522
20.84	40.305
21.06	19.404
21.28	14.535
21.5	14.634
21.72	13.596
21.94	16.529
22.16	19.741
22.38	13.586
22.6	19.177
22.82	8.731
23.04	2.657
23.26	9.558
23.48	7.245
23.7	5.113
23.92	14.281
24.14	13.34
24.36	4.513
24.58	3.115
24.8	6.17
25.02	0.704
25.24	2.73
25.46	11.767
25.68	14.691
25.9	16.352
26.12	5.445
26.34	0.181
26.56	1.684
26.78	0.454
27	3.419
27.22	17.335
27.44	14.893
27.66	17.062
27.88	8.212
28.1	2.917
28.32	7.174
28.54	3.812
28.76	8.479
28.98	6.084
29.2	15.732
29.42	18.837
29.64	117.686
29.86	37.438
30.08	12.605
30.3	5.868
30.52	3.71
30.74	9.428
30.96	15.772
31.18	6.025
31.4	11.523
31.62	2.215
31.84	14.059
32.06	2.054
32.28	15.064
32.5	4.398
32.72	5.979
32.94	13.207
33.16	43.858
33.38	64.82
33.6	18.314
33.82	4.926
34.04	5.074
34.26	7.947
34.48	21.691
34.7	8.366
34.92	31.869
35.14	6.778
35.36	10.01
35.58	1.311
35.8	11.55
36.02	15.785
36.24	17.661
36.46	27.736
36.68	27.98
36.9	17.238
37.12	2.217
37.34	6.413
37.56	0.518
37.78	17.863
38	19.569
38.22	12.769
38.44	8.977
38.66	12.183
38.88	9.365
39.1	1.717
39.32	11.865
39.54	22.738
39.76	8.352
39.98	17.736
40.2	13.942
40.42	22.452
40.64	6.277
40.86	7.869
41.08	21.956
41.3	0.186
41.52	6.98
41.74	0.339
41.96	16.673
42.18	7.381
42.4	17.765
42.62	21.563
42.84	4.778
43.06	2.802
43.28	5.232
43.5	13.26
43.72	19.306
43.94	16.756
44.16	12.907
44.38	8.575
44.6	16.414
44.82	17.164
45.04	11.44
45.26	3.028
45.48	4.845
45.7	10.771
45.92	19.658
46.14	12.612
46.36	32.967
46.58	36.13
46.8	12.934
47.02	14.938
47.24	4.099
47.46	12.967
47.68	31.065
47.9	17.403
48.12	15.297
48.34	4.443
48.56	9.549
48.78	27.087
49	11.116
49.22	1.631
49.44	15.902
49.66	3.796
49.88	1.947
50.1	11.173
50.32	1.822
50.54	21.045
50.76	21.92
50.98	6.91
51.2	14.158
51.42	19.195
51.64	8.591
51.86	18.981
52.08	12.589
52.3	8.407
52.52	17.056
52.74	13.902
52.96	19.754
53.18	6.357
53.4	18.08
53.62	7.563
53.84	8.233
54.06	19.95
54.28	13.788
54.5	6.6
54.72	11.084
54.94	30.009
55.16	13.895
55.38	13.55
55.6	16.818
55.82	16.252
56.04	26.038
56.26	13.855
56.48	17.685
56.7	18.69
56.92	7.977
57.14	145.153
57.36	46.315
57.58	26.356
57.8	18.6
58.02	4.948
58.24	4.228
58.46	7.765
58.68	13.643
58.9	7.245
59.12	12.273
59.34	15.119
59.56	7.492
59.78	21.466
60	10.576
60.22	0.27
60.44	15.488
60.66	0.967
60.88	15.404
61.1	7.215
61.32	9.713
61.54	26.468
61.76	13.619
61.98	7.046
62.2	15.74
62.42	0.561
62.64	7.827
62.86	2.133
63.08	7.36
63.3	2.307
63.52	18.486
63.74	9.049
63.96	12.342
64.18	13.038
64.4	0.023
64.62	10.191
64.84	10.436
65.06	21.719
65.28	4.584
65.5	14.67
65.72	19.48
65.94	13.345
66.16	10.984
66.38	15.791
66.6	6.977
66.82	15.709
67.04	13.522
67.26	8.426
67.48	5.906
67.7	11.554
67.92	13.349
68.14	9.326
68.36	7.335
68.58	12.095
68.8	14.087
69.02	16.619
69.24	22.98
69.46	17.179
69.68	25.045
69.9	38.669
70.12	12.928
70.34	25.833
70.56	14.599
70.78	12.418
71	9.164
71.22	10.126
71.44	6.707
71.66	34.371
71.88	20.255
72.1	19.302
72.32	5.855
72.54	14.011
72.76	0.303
72.98	9.468
73.2	21.559
73.42	0.311
73.64	36.65
73.86	36.434
74.08	14.824
74.3	24.258
74.52	4.304
74.74	15.995
74.96	15.306
75.18	15.134
75.4	11.103
75.62	6.625
75.84	10.909
76.06	13.165
76.28	13.096
76.5	14.26
76.72	1.337
76.94	6.019
77.16	10.569
77.38	1.091
77.6	18.138
77.82	13.972
78.04	9.571
78.26	5.4
78.48	10.285
78.7	17.029
78.92	13.884
79.14	5.134
79.36	3.974
79.58	33.364
79.8	6.468
80.02	19.734
80.24	8.53
80.46	11.754
80.68	4.369
80.9	25.656
81.12	12.078
81.34	19.266
81.56	10.153
81.78	22.479
82	3.092
82.22	20.066
82.44	15.722
82.66	7.97
82.88	5.909
83.1	9.769
83.32	17.367
83.54	14.558
83.76	11.936
83.98	17.261
84.2	5.129
84.42	15.194
84.64	5.541
84.86	6.79
85.08	20.7
85.3	17.448
85.52	14.908
85.74	11.138
85.96	3.688
86.18	3.597
86.4	9.297
86.62	0.54
86.84	1.546
87.06	26.042
87.28	4.247
87.5	10.095
87.72	16.572
87.94	20.486
88.16	12.58
88.38	1.581
88.6	13.307
88.82	51.451
89.04	19.973
89.26	25.363
89.48	11.672
89.7	5.871
89.92	15.668
