Measurement: Powder, Xray Data XY Processed
Mineral: Andradite
Rruff sample: R060423
Ideal chemistry: Ca_3_Fe^3+^_2_(SiO_4_)_3_
Locality: Mali
Source: Greg Schmidt
Description: Black dodecahedron
Diffraction sample description: Powder
Measured chemistry: (Ca_2.93_Mg_0.04_Mn_0.03_)_Σ=3_(Fe^3+^_0.99_Al_0.95_Ti_0.06_)_Σ=2_((Si_0.98_Fe^3+^_0.02_)_Σ=1_O_4_)_3_
Cell parameters: a: 11.9528(3) b: 11.9528(3) c: 11.9528(3) alpha: 90. beta: 90. gamma: 90. volume: 1707.6(1) crystal system: cubic
x	intensity
5	0
5.22	13.807
5.44	6.103
5.66	21.562
5.88	23.593
6.1	23.87
6.32	7.652
6.54	20.377
6.76	12.007
6.98	15.784
7.2	12.898
7.42	18.843
7.64	15.439
7.86	22.028
8.08	13.607
8.3	11.339
8.52	2.095
8.74	1.853
8.96	1.047
9.18	5.188
9.4	20.235
9.62	8.007
9.84	2.65
10.06	10.242
10.28	5.614
10.5	20.153
10.72	3.999
10.94	8.156
11.16	7.006
11.38	3.831
11.6	11.228
11.82	17.264
12.04	15.227
12.26	7.286
12.48	10.127
12.7	0.554
12.92	6.433
13.14	5.336
13.36	14.559
13.58	13.827
13.8	11.099
14.02	16.786
14.24	15.108
14.46	14.318
14.68	7.444
14.9	5.685
15.12	2.904
15.34	0.368
15.56	21.521
15.78	9.626
16	13.721
16.22	1.211
16.44	16.456
16.66	4.521
16.88	11.801
17.1	2.896
17.32	9.197
17.54	14.801
17.76	8.369
17.98	10.66
18.2	26.681
18.42	19.841
18.64	2.858
18.86	8.036
19.08	23.075
19.3	12.738
19.52	9.71
19.74	1.471
19.96	0.525
20.18	4.667
20.4	19.791
20.62	4.348
20.84	14.332
21.06	13.434
21.28	10.211
21.5	10.179
21.72	7.156
21.94	0.077
22.16	4.024
22.38	8.074
22.6	21.961
22.82	12.84
23.04	7.233
23.26	7.083
23.48	2.832
23.7	0.931
23.92	6.253
24.14	11.19
24.36	13.385
24.58	8.481
24.8	9.511
25.02	15.653
25.24	23.338
25.46	12.307
25.68	6.324
25.9	1.146
26.12	7.465
26.34	1.62
26.56	2.461
26.78	9.205
27	3.953
27.22	5.906
27.44	12.45
27.66	11.397
27.88	11.691
28.1	9.61
28.32	2.026
28.54	10.83
28.76	4.045
28.98	9.102
29.2	9.061
29.42	7.117
29.64	9.124
29.86	53.485
30.08	42.545
30.3	24.773
30.52	15.778
30.74	8.312
30.96	10.445
31.18	13.676
31.4	5.558
31.62	3.563
31.84	6.469
32.06	12.196
32.28	6.043
32.5	19.198
32.72	1.986
32.94	5.862
33.16	3.711
33.38	7.738
33.6	310.587
33.82	4.714
34.04	1.229
34.26	11.811
34.48	13.845
34.7	18.117
34.92	1.851
35.14	4.065
35.36	10.991
35.58	6.083
35.8	8.434
36.02	1.114
36.24	7.802
36.46	4.89
36.68	13.654
36.9	89.429
37.12	12.692
37.34	8.715
37.56	2.866
37.78	9.807
38	16.174
38.22	0.583
38.44	56.744
38.66	10.349
38.88	9.245
39.1	6.675
39.32	15.556
39.54	5.74
39.76	1.365
39.98	3.714
40.2	0.75
40.42	12.635
40.64	5.693
40.86	10.764
41.08	8.452
41.3	17.584
41.52	27.237
41.74	11.314
41.96	9.199
42.18	2.903
42.4	17.902
42.62	14.027
42.84	11.672
43.06	5.731
43.28	2.154
43.5	11.958
43.72	1.012
43.94	6.925
44.16	8.049
44.38	1.192
44.6	2.765
44.82	1.022
45.04	0.727
45.26	10.303
45.48	3.832
45.7	11.487
45.92	8.909
46.14	3.648
46.36	0.683
46.58	4.346
46.8	48.022
47.02	33.645
47.24	7.598
47.46	12.739
47.68	3.982
47.9	9.358
48.12	5.951
48.34	13.688
48.56	10.375
48.78	8.735
49	15.859
49.22	10.106
49.44	16.683
49.66	7.919
49.88	11.711
50.1	24.769
50.32	10.703
50.54	7.578
50.76	17.216
50.98	5.825
51.2	5.889
51.42	3.181
51.64	8.029
51.86	6.546
52.08	20.274
52.3	11.27
52.52	12.941
52.74	8.133
52.96	27.997
53.18	28.602
53.4	4.958
53.62	8.184
53.84	7.296
54.06	2.459
54.28	6.39
54.5	19.351
54.72	3.249
54.94	7.119
55.16	13.206
55.38	40.386
55.6	36.248
55.82	11.617
56.04	9.808
56.26	1.435
56.48	4.061
56.7	12.918
56.92	11.804
57.14	6.071
57.36	14.172
57.58	28.873
57.8	146.769
58.02	14.956
58.24	11.308
58.46	4.178
58.68	5.09
58.9	2.136
59.12	4.694
59.34	13.829
59.56	17.509
59.78	9.573
60	17.247
60.22	7.182
60.44	9.102
60.66	5.718
60.88	6.757
61.1	10.014
61.32	8.806
61.54	11.335
61.76	12.235
61.98	20.7
62.2	25.489
62.42	13.633
62.64	10.828
62.86	14.005
63.08	10.287
63.3	15.208
63.52	2.487
63.74	1.175
63.96	1.956
64.18	2.176
64.4	8.157
64.62	4.878
64.84	11.277
65.06	6.102
65.28	9.671
65.5	16.002
65.72	16.045
65.94	12.464
66.16	12.988
66.38	0.068
66.6	5.775
66.82	10.197
67.04	8.766
67.26	5.227
67.48	13.894
67.7	12.253
67.92	7.084
68.14	4.447
68.36	1.98
68.58	4.42
68.8	14.704
69.02	5.275
69.24	5.253
69.46	11.257
69.68	3.326
69.9	5.684
70.12	9.664
70.34	19.776
70.56	23.302
70.78	13.733
71	1.669
71.22	19.071
71.44	17.688
71.66	5.541
71.88	15.549
72.1	6.648
72.32	27.675
72.54	40.627
72.76	17.084
72.98	0.154
73.2	3.737
73.42	5.611
73.64	7.806
73.86	19.061
74.08	13.251
74.3	14.163
74.52	20.379
74.74	19.406
74.96	4.059
75.18	3.692
75.4	10.796
75.62	4.993
75.84	15.203
76.06	12.389
76.28	14.239
76.5	4.266
76.72	5.317
76.94	23.262
77.16	5.346
77.38	10.67
77.6	7.083
77.82	1.015
78.04	1.686
78.26	13.587
78.48	11.399
78.7	9.869
78.92	11.23
79.14	19.064
79.36	17.047
79.58	14.285
79.8	3.519
80.02	2.823
80.24	11.336
80.46	15.314
80.68	2.302
80.9	8.222
81.12	13.708
81.34	3.187
81.56	8.72
81.78	14.502
82	2.398
82.22	19.035
82.44	8.374
82.66	5.1
82.88	3.2
83.1	5.474
83.32	15.789
83.54	3.917
83.76	7.985
83.98	9.069
84.2	16.156
84.42	11.038
84.64	12.817
84.86	5.691
85.08	6.722
85.3	2.657
85.52	6.275
85.74	6.961
85.96	13.745
86.18	1.055
86.4	1.421
86.62	1.279
86.84	4.268
87.06	17.335
87.28	6.172
87.5	9.115
87.72	19.057
87.94	18.582
88.16	19.778
88.38	5.228
88.6	9.775
88.82	13.478
89.04	10.927
89.26	4.991
89.48	20.52
89.7	27.36
89.92	31.533
