Measurement: Powder, Xray Data XY Processed
Mineral: Anglesite
Rruff sample: R040004
Ideal chemistry: Pb^2+^S^6+^O_4_
Locality: Erupcion mine, Los Lamentos, Chihuahua, Mexico
Source: University of Arizona Mineral Museum
Description: Tan colored tabular crystal
Diffraction sample description: Powder
Measured chemistry: Pb_1.00_S_1.00_O_4_
Cell parameters: a: 6.9543(4) b: 8.4739(4) c: 5.3958(2) alpha: 90. beta: 90. gamma: 90. volume: 317.98(2) crystal system: orthorhombic
x	intensity
5	0
5.22	9.832
5.44	9.302
5.66	5.137
5.88	9.142
6.1	6.371
6.32	10.788
6.54	9.269
6.76	4.594
6.98	3.184
7.2	11.508
7.42	7.886
7.64	4.549
7.86	4.952
8.08	12.12
8.3	3.361
8.52	8.496
8.74	7.35
8.96	8.328
9.18	8.042
9.4	7.923
9.62	2.937
9.84	3.016
10.06	11.728
10.28	5.805
10.5	2.878
10.72	1.935
10.94	1.059
11.16	2.532
11.38	3.812
11.6	4.75
11.82	8.895
12.04	8.725
12.26	4.655
12.48	1.163
12.7	7.878
12.92	6.897
13.14	4.865
13.36	2.868
13.58	6.461
13.8	6.455
14.02	11.767
14.24	1.697
14.46	8.78
14.68	2.723
14.9	4.651
15.12	3.65
15.34	5.6
15.56	8.542
15.78	9.511
16	5.828
16.22	4.473
16.44	5.14
16.66	3.23
16.88	7.155
17.1	7.05
17.32	9.792
17.54	2.845
17.76	1.245
17.98	6.697
18.2	8.512
18.42	9.497
18.64	2.687
18.86	11.892
19.08	2.691
19.3	11.508
19.52	2.475
19.74	3.344
19.96	0.119
20.18	10.017
20.4	7.136
20.62	14.467
20.84	137.14
21.06	126.01
21.28	14.98
21.5	9.104
21.72	8.368
21.94	7.242
22.16	6.099
22.38	7.933
22.6	3.732
22.82	1.426
23.04	1.943
23.26	19.866
23.48	100.417
23.7	6.86
23.92	5.529
24.14	5.43
24.36	9.326
24.58	34.186
24.8	25.134
25.02	4.663
25.24	2.326
25.46	9.658
25.68	104.327
25.9	12.298
26.12	3.293
26.34	0.489
26.56	23.951
26.78	445.89
27	38.924
27.22	0.802
27.44	0.86
27.66	24.826
27.88	109.294
28.1	7.625
28.32	7.731
28.54	6.789
28.76	7.57
28.98	1.705
29.2	5.779
29.42	8.904
29.64	57.001
29.86	245.928
30.08	16.4
30.3	12.099
30.52	3.686
30.74	1.986
30.96	2.127
31.18	7.051
31.4	10.9
31.62	2.224
31.84	3.542
32.06	2.916
32.28	10.549
32.5	98.92
32.72	12.445
32.94	11.757
33.16	39.639
33.38	56.603
33.6	7.047
33.82	1.75
34.04	1.177
34.26	31.741
34.48	11.189
34.7	2.818
34.92	5.409
35.14	0.779
35.36	3.436
35.58	6.896
35.8	3.255
36.02	6.936
36.24	6.651
36.46	12.427
36.68	2.205
36.9	5.159
37.12	8.86
37.34	27.494
37.56	27.298
37.78	0.481
38	7.221
38.22	14.207
38.44	4.064
38.66	9.963
38.88	1.297
39.1	3.849
39.32	7.798
39.54	19.556
39.76	41.704
39.98	3.525
40.2	10.668
40.42	11.142
40.64	1.538
40.86	10.235
41.08	13.141
41.3	14.366
41.52	4.155
41.74	47.938
41.96	34.985
42.18	5.59
42.4	23.467
42.62	6.134
42.84	5.594
43.06	4.092
43.28	1.612
43.5	6.863
43.72	89.386
43.94	181.874
44.16	30.728
44.38	15.521
44.6	121.645
44.82	96.877
45.04	10.292
45.26	10.898
45.48	0.016
45.7	9.868
45.92	18.17
46.14	43.455
46.36	11.729
46.58	1.833
46.8	4.568
47.02	8.201
47.24	8.617
47.46	0.121
47.68	10.068
47.9	10.888
48.12	7.333
48.34	3.181
48.56	31.883
48.78	11.804
49	8.551
49.22	8.692
49.44	7.932
49.66	4.311
49.88	4.461
50.1	9.485
50.32	16.322
50.54	2.232
50.76	13.332
50.98	112.37
51.2	13.685
51.42	7.1
51.64	3.87
51.86	3.359
52.08	3.317
52.3	4.279
52.52	12.112
52.74	21.864
52.96	3.689
53.18	6.301
53.4	12.59
53.62	12.964
53.84	72.468
54.06	22.51
54.28	17.359
54.5	1.027
54.72	1.945
54.94	2.083
55.16	3.116
55.38	9.968
55.6	14.814
55.82	11.189
56.04	5.704
56.26	12.148
56.48	16.195
56.7	37.987
56.92	40.181
57.14	30.259
57.36	33.324
57.58	4.224
57.8	3.442
58.02	6.597
58.24	0.086
58.46	7.125
58.68	9.97
58.9	9.92
59.12	0.451
59.34	0.886
59.56	5.171
59.78	6.378
60	14.322
60.22	9.785
60.44	3.013
60.66	5.675
60.88	2.407
61.1	2.462
61.32	4.112
61.54	6.731
61.76	4.816
61.98	11.564
62.2	36.054
62.42	24.633
62.64	13.868
62.86	10.495
63.08	7.618
63.3	21.843
63.52	20.701
63.74	11.661
63.96	3.603
64.18	1.614
64.4	7.354
64.62	18.856
64.84	31.546
65.06	5.597
65.28	14.695
65.5	22.296
65.72	7.719
65.94	6.479
66.16	8.119
66.38	6.656
66.6	14.186
66.82	22.145
67.04	13.402
67.26	25.702
67.48	27.214
67.7	15.807
67.92	4.818
68.14	3.224
68.36	13.683
68.58	39.899
68.8	16.213
69.02	8.567
69.24	2.286
69.46	14.646
69.68	18.102
69.9	25.337
70.12	16.588
70.34	12.981
70.56	11.148
70.78	5.833
71	7.491
71.22	9.891
71.44	6.227
71.66	3.679
71.88	3.903
72.1	2.523
72.32	10.816
72.54	10.915
72.76	6.835
72.98	11.069
73.2	6.035
73.42	2.812
73.64	10.559
73.86	16.345
74.08	0.883
74.3	8.763
74.52	2.649
74.74	14.544
74.96	16.447
75.18	0.74
75.4	6.105
75.62	7.677
75.84	8.397
76.06	5.549
76.28	9.372
76.5	12.344
76.72	13.303
76.94	1.09
77.16	0.664
77.38	1.687
77.6	5.868
77.82	2.313
78.04	4.142
78.26	22.529
78.48	15.879
78.7	19.333
78.92	10.593
79.14	4.691
79.36	7.39
79.58	2.701
79.8	0.173
80.02	3.896
80.24	12.716
80.46	5.071
80.68	5.985
80.9	10.868
81.12	10.844
81.34	15.962
81.56	0.841
81.78	13.33
82	4.131
82.22	5.073
82.44	0.989
82.66	5.157
82.88	3.361
83.1	29.426
83.32	22.072
83.54	12.868
83.76	9.479
83.98	3.479
84.2	1.449
84.42	9.536
84.64	8.625
84.86	13.85
85.08	5.796
85.3	2.354
85.52	7.132
85.74	9.043
85.96	0.934
86.18	2.886
86.4	8.886
86.62	20.705
86.84	20.721
87.06	9.573
87.28	6.828
87.5	2.15
87.72	8.735
87.94	4.887
88.16	5.958
88.38	11.874
88.6	5.741
88.82	12.511
89.04	2.724
89.26	10.114
89.48	16.197
89.7	17.402
89.92	7.29
