Measurement: Powder, Xray Data XY Processed
Mineral: Anhydrite
Rruff sample: R061102
Ideal chemistry: CaS^6+^O_4_
Locality: Taft, Kern County, California
Source: Michael Scott
Description: White massive with crystalline gypsum
Diffraction sample description: Powder
Measured chemistry: (Ca_0.98_Fe^2+^_0.02_)_Î£=1_S_1.00_O_4_
Cell parameters: a: 7.0039(4) b: 6.9956(5) c: 6.2417(4) alpha: 90 beta: 90 gamma: 90 volume: 305.82(2) crystal system: orthorhombic
x	intensity
5	0
5.22	6.00976
5.44	9.99392
5.66	18.916
5.88	15.7799
6.1	6.09016
6.32	9.03328
6.54	1.06932
6.76	8.98804
6.98	8.01006
7.2	4.00399
7.42	0.864946
7.64	7.3991
7.86	3.49338
8.08	3.74422
8.3	0.398029
8.52	4.70195
8.74	12.753
8.96	9.87493
9.18	1.80297
9.4	11.7721
9.62	21.823
9.84	9.91598
10.06	4.05605
10.28	1.28495
10.5	11.4863
10.72	2.86755
10.94	6.05184
11.16	5.32899
11.38	8.39635
11.6	6.43425
11.82	6.94623
12.04	4.11124
12.26	0.922463
12.48	5.22841
12.7	5.45378
12.92	16.4381
13.14	5.68864
13.36	12.9688
13.58	6.26102
13.8	1.62775
14.02	3.67398
14.24	6.79966
14.46	2.23167
14.68	1.95905
14.9	4.17268
15.12	6.04425
15.34	1.03555
15.56	0.956161
15.78	2.23784
16	8.45915
16.22	4.45548
16.44	5.67522
16.66	6.71104
16.88	6.67948
17.1	3.53161
17.32	5.32639
17.54	8.25627
17.76	5.37713
17.98	7.51528
18.2	8.52886
18.42	5.6307
18.64	8.39971
18.86	2.17703
19.08	8.16331
19.3	7.2584
19.52	0.279883
19.74	7.80459
19.96	3.90998
20.18	2.93631
20.4	0.196044
20.62	2.01016
20.84	9.00073
21.06	4.9756
21.28	1.99869
21.5	4.9739
21.72	8.83326
21.94	5.75085
22.16	6.46429
22.38	0.677742
22.6	3.57092
22.82	15.4356
23.04	34.727
23.26	10.2814
23.48	10.0009
23.7	8.10183
23.92	5.20501
24.14	9.21901
24.36	0.129907
24.58	13.7421
24.8	21.2525
25.02	24.1208
25.24	104.178
25.46	2113.12
25.68	108.63
25.9	20.9293
26.12	8.17969
26.34	3.96297
26.56	1.72725
26.78	9.5387
27	11.3292
27.22	12.1263
27.44	1.84078
27.66	1.28433
27.88	4.95023
28.1	9.6508
28.32	5.7618
28.54	15.0958
28.76	7.11226
28.98	1.26146
29.2	1.34767
29.42	10.522
29.64	5.67623
29.86	3.6661
30.08	8.41616
30.3	8.92741
30.52	9.15129
30.74	13.089
30.96	2.46475
31.18	10.2949
31.4	198.928
31.62	0.895377
31.84	10.9431
32.06	24.7369
32.28	5.98499
32.5	3.5566
32.72	11.3579
32.94	9.63873
33.16	3.24021
33.38	14.7513
33.6	6.22377
33.82	15.5262
34.04	9.87937
34.26	9.80008
34.48	11.9351
34.7	6.97429
34.92	11.529
35.14	15.1454
35.36	2.91601
35.58	0.51668
35.8	8.15036
36.02	9.00554
36.24	59.0481
36.46	19.7121
36.68	6.83205
36.9	6.61568
37.12	0.709988
37.34	9.59553
37.56	14.5796
37.78	6.56227
38	7.03046
38.22	8.22339
38.44	5.0863
38.66	143.031
38.88	22.8453
39.1	7.8733
39.32	11.4652
39.54	7.06232
39.76	3.72437
39.98	3.42361
40.2	7.14386
40.42	15.3872
40.64	22.0043
40.86	138.923
41.08	19.0178
41.3	84.9776
41.52	22.1064
41.74	4.85628
41.96	7.21399
42.18	5.5603
42.4	7.89813
42.62	3.28468
42.84	3.93404
43.06	11.2323
43.28	34.3836
43.5	46.5538
43.72	13.959
43.94	3.82642
44.16	10.4869
44.38	11.4861
44.6	3.48412
44.82	5.4577
45.04	10.6043
45.26	14.5632
45.48	40.4812
45.7	7.412
45.92	2.22896
46.14	0.504771
46.36	2.66547
46.58	3.54532
46.8	24.8306
47.02	20.9613
47.24	3.18432
47.46	13.943
47.68	2.60034
47.9	5.52134
48.12	2.46258
48.34	5.50519
48.56	24.0556
48.78	64.8467
49	21.9168
49.22	26.1524
49.44	18.2006
49.66	2.80607
49.88	8.98333
50.1	9.09469
50.32	1.28518
50.54	8.38959
50.76	8.24189
50.98	1.00023
51.2	7.8135
51.42	6.58219
51.64	1.20287
51.86	9.16354
52.08	17.9564
52.3	114.942
52.52	20.1592
52.74	4.21394
52.96	8.74284
53.18	1.368
53.4	7.58641
53.62	0.031627
53.84	5.42096
54.06	4.51546
54.28	1.29249
54.5	2.96666
54.72	5.92925
54.94	3.73072
55.16	12.4227
55.38	8.00871
55.6	29.7835
55.82	47.1515
56.04	16.2606
56.26	10.1501
56.48	9.42419
56.7	2.53799
56.92	1.67087
57.14	8.09176
57.36	5.15635
57.58	4.26866
57.8	22.3071
58.02	3.31263
58.24	4.94374
58.46	10.9936
58.68	7.17587
58.9	26.153
59.12	25.1491
59.34	11.2273
59.56	2.95264
59.78	2.99576
60	0.825161
60.22	2.2096
60.44	6.61731
60.66	22.7625
60.88	8.3557
61.1	9.24643
61.32	1.08833
61.54	6.39266
61.76	6.45142
61.98	15.6379
62.2	20.0862
62.42	28.1372
62.64	5.40043
62.86	9.55046
63.08	4.79044
63.3	12.2197
63.52	2.59408
63.74	7.68789
63.96	1.70581
64.18	4.79556
64.4	4.66017
64.62	6.19061
64.84	17.0814
65.06	11.7197
65.28	5.4378
65.5	24.2283
65.72	14.8384
65.94	5.5129
66.16	0.511398
66.38	0.61567
66.6	7.61022
66.82	14.9423
67.04	18.6018
67.26	10.7304
67.48	4.93332
67.7	3.00709
67.92	2.19234
68.14	8.47089
68.36	7.68796
68.58	1.82647
68.8	8.70829
69.02	11.0581
69.24	4.28733
69.46	6.1595
69.68	12.5186
69.9	12.5495
70.12	7.57682
70.34	1.49671
70.56	0.682039
70.78	14.211
71	7.06461
71.22	6.24469
71.44	19.2458
71.66	20.6946
71.88	3.19115
72.1	11.9125
72.32	8.76546
72.54	6.63985
72.76	0.447575
72.98	9.23092
73.2	4.08259
73.42	0.185534
73.64	3.10189
73.86	7.18739
74.08	15.3186
74.3	23.5589
74.52	9.46157
74.74	9.74572
74.96	1.38622
75.18	11.6342
75.4	7.04841
75.62	7.50193
75.84	1.73341
76.06	4.90238
76.28	8.80534
76.5	2.85803
76.72	13.9114
76.94	3.83391
77.16	13.5736
77.38	6.8472
77.6	0.617496
77.82	1.52388
78.04	4.32944
78.26	2.27683
78.48	7.20924
78.7	10.0509
78.92	14.0441
79.14	1.06449
79.36	0.091264
79.58	2.09754
79.8	10.6895
80.02	11.7747
80.24	8.00098
80.46	5.89455
80.68	1.88701
80.9	0.153809
81.12	2.73049
81.34	1.592
81.56	2.32278
81.78	6.02817
82	10.7239
82.22	4.45808
82.44	10.3677
82.66	30.2516
82.88	28.4721
83.1	9.42299
83.32	8.45527
83.54	3.66003
83.76	2.89657
83.98	2.72882
84.2	5.51196
84.42	1.87495
84.64	8.1347
84.86	7.27843
85.08	11.4049
85.3	9.29151
85.52	9.48658
85.74	1.8678
85.96	2.80852
86.18	3.96023
86.4	7.01487
86.62	9.89748
86.84	8.60276
87.06	5.08976
87.28	9.97113
87.5	7.68645
87.72	0.417987
87.94	4.4288
88.16	13.3804
88.38	32.5605
88.6	12.6836
88.82	7.7258
89.04	3.05369
89.26	6.58503
89.48	10.4043
89.7	4.95034
89.92	10.8059
