Measurement: Powder, Xray Data XY Processed
Mineral: Ankerite
Rruff sample: R050197
Ideal chemistry: CaFe^2+^(CO_3_)_2_
Locality: Brownley Hill mine, Nenthead, Cumbria, England
Source: Marcus Origlieri
Description: Curved saddle-shaped rhombohedral crystals
Diffraction sample description: Powder
Measured chemistry: Ca_1.00_(Fe^2+^_0.52_Mg_0.35_Ca_0.08_Mn^2+^_0.05_)_Î£=1_(CO_3_)_2_ ; where C was not measured but estimated by difference and stoichiometry
Cell parameters: a: 4.8328(2) b: 4.8328(2) c: 16.209(1) alpha: 90. beta: 90. gamma: 120. volume: 327.86(2) crystal system: hexagonal
x	intensity
5	0
5.22	23.1314
5.44	1.10719
5.66	21.6888
5.88	19.5934
6.1	2.71381
6.32	8.38736
6.54	13.4557
6.76	30.4634
6.98	19.252
7.2	20.6828
7.42	17.4918
7.64	19.3155
7.86	5.11995
8.08	9.90748
8.3	5.12456
8.52	9.81434
8.74	12.1226
8.96	10.3376
9.18	23.2742
9.4	21.6106
9.62	16.4965
9.84	26.6422
10.06	16.0934
10.28	18.7259
10.5	12.5338
10.72	16.5575
10.94	9.3566
11.16	5.76412
11.38	13.881
11.6	14.4877
11.82	4.62216
12.04	9.8513
12.26	14.6571
12.48	18.0914
12.7	16.141
12.92	8.19881
13.14	21.2298
13.36	8.17896
13.58	3.54221
13.8	12.8816
14.02	1.26134
14.24	7.77293
14.46	18.5245
14.68	19.4643
14.9	9.50765
15.12	12.7121
15.34	3.04873
15.56	34.1562
15.78	19.1507
16	14.0567
16.22	18.199
16.44	25.8039
16.66	6.56511
16.88	7.91771
17.1	0.904896
17.32	11.9954
17.54	4.61646
17.76	3.1161
17.98	15.9705
18.2	9.55046
18.42	23.1075
18.64	17.2608
18.86	8.90846
19.08	4.87704
19.3	14.58
19.52	0.161678
19.74	17.9727
19.96	3.89384
20.18	7.40231
20.4	11.0241
20.62	0.488441
20.84	15.8245
21.06	7.80631
21.28	10.8177
21.5	3.97558
21.72	9.92325
21.94	12.8734
22.16	16.119
22.38	4.23626
22.6	11.0878
22.82	13.9774
23.04	20.3485
23.26	4.03991
23.48	17.119
23.7	28.4606
23.92	48.0574
24.14	9.65658
24.36	30.858
24.58	12.6112
24.8	8.45834
25.02	19.9934
25.24	34.8643
25.46	12.1335
25.68	14.6188
25.9	10.8383
26.12	17.0316
26.34	13.113
26.56	9.52743
26.78	2.24792
27	10.6423
27.22	8.79795
27.44	26.0244
27.66	17.7867
27.88	6.88722
28.1	15.9307
28.32	12.9492
28.54	17.5784
28.76	18.0561
28.98	12.1273
29.2	16.4118
29.42	23.75
29.64	12.0877
29.86	14.1732
30.08	14.4949
30.3	11.3276
30.52	55.3484
30.74	345.791
30.96	61.1804
31.18	35.3865
31.4	5.51221
31.62	12.4459
31.84	0.609329
32.06	4.39095
32.28	13.4206
32.5	4.62155
32.72	5.41439
32.94	1.43128
33.16	15.6204
33.38	16.218
33.6	9.76338
33.82	5.56464
34.04	7.15194
34.26	15.1823
34.48	0.331543
34.7	16.8774
34.92	13.647
35.14	15.284
35.36	21.4047
35.58	11.3776
35.8	7.75552
36.02	14.2776
36.24	13.5774
36.46	13.0584
36.68	7.37365
36.9	7.80001
37.12	34.1659
37.34	30.6916
37.56	6.67509
37.78	17.9589
38	13.3289
38.22	19.2583
38.44	2.25507
38.66	1.03179
38.88	0.626095
39.1	8.39143
39.32	15.2016
39.54	1.8895
39.76	5.01787
39.98	8.85836
40.2	15.067
40.42	4.85242
40.64	13.4011
40.86	31.7201
41.08	23.374
41.3	17.4467
41.52	0.21019
41.74	10.7007
41.96	8.25944
42.18	16.6811
42.4	7.88455
42.62	6.19651
42.84	15.5945
43.06	14.3916
43.28	27.2383
43.5	17.7104
43.72	9.90181
43.94	31.1167
44.16	8.41945
44.38	5.31693
44.6	12.8901
44.82	9.02342
45.04	6.14579
45.26	8.56744
45.48	2.25382
45.7	11.219
45.92	3.97076
46.14	10.0371
46.36	11.593
46.58	5.49026
46.8	26.7981
47.02	13.5944
47.24	6.12652
47.46	20.9994
47.68	8.7399
47.9	3.43321
48.12	16.3039
48.34	8.7806
48.56	14.8708
48.78	6.9048
49	10.3213
49.22	9.67364
49.44	6.73608
49.66	8.49775
49.88	7.44888
50.1	6.58497
50.32	18.6653
50.54	27.8428
50.76	24.6642
50.98	22.3544
51.2	0.600397
51.42	13.4581
51.64	10.3288
51.86	2.0951
52.08	12.2713
52.3	3.16382
52.52	9.46628
52.74	18.2911
52.96	10.8791
53.18	0.294266
53.4	7.43241
53.62	6.13616
53.84	14.4624
54.06	12.5035
54.28	14.4003
54.5	9.89968
54.72	3.08612
54.94	8.22121
55.16	14.1522
55.38	4.84467
55.6	11.9024
55.82	8.11659
56.04	10.5101
56.26	9.21544
56.48	3.10322
56.7	5.1989
56.92	7.08491
57.14	5.39948
57.36	3.04435
57.58	4.90279
57.8	13.9337
58.02	13.3191
58.24	1.06967
58.46	26.641
58.68	14.7879
58.9	8.23564
59.12	7.60233
59.34	7.75154
59.56	19.4723
59.78	6.74845
60	4.9281
60.22	19.3319
60.44	11.9621
60.66	17.1717
60.88	9.01262
61.1	2.95811
61.32	9.00211
61.54	5.76273
61.76	13.6364
61.98	13.414
62.2	6.07651
62.42	3.592
62.64	9.20527
62.86	6.87001
63.08	9.63129
63.3	7.10206
63.52	11.0647
63.74	3.64132
63.96	9.40567
64.18	7.61633
64.4	10.3616
64.62	4.63842
64.84	12.3922
65.06	8.08381
65.28	21.3874
65.5	14.8766
65.72	14.7573
65.94	10.012
66.16	9.21249
66.38	3.37503
66.6	11.4561
66.82	5.16225
67.04	14.201
67.26	11.1834
67.48	8.04262
67.7	1.11974
67.92	9.57229
68.14	2.59505
68.36	10.7631
68.58	0.289057
68.8	6.81288
69.02	20.0127
69.24	15.0294
69.46	2.87814
69.68	14.8538
69.9	3.98482
70.12	19.1772
70.34	2.19034
70.56	9.13387
70.78	0.372053
71	9.07098
71.22	6.15802
71.44	8.14933
71.66	9.19982
71.88	11.4709
72.1	7.53613
72.32	5.8388
72.54	4.83084
72.76	10.5809
72.98	5.20373
73.2	0.779737
73.42	6.09913
73.64	0.800482
73.86	5.36554
74.08	1.6055
74.3	4.56521
74.52	7.54575
74.74	8.3007
74.96	1.42894
75.18	15.1878
75.4	21.4342
75.62	15.3912
75.84	7.02474
76.06	14.2631
76.28	13.1345
76.5	5.83648
76.72	9.98165
76.94	0.061232
77.16	11.9924
77.38	7.04285
77.6	4.96284
77.82	1.79087
78.04	12.1985
78.26	11.5344
78.48	7.93732
78.7	5.21064
78.92	3.45944
79.14	16.0373
79.36	13.1848
79.58	6.41771
79.8	7.56229
80.02	13.7084
80.24	11.9977
80.46	5.86095
80.68	1.12637
80.9	5.45999
81.12	2.52207
81.34	9.84322
81.56	15.1064
81.78	11.1471
82	8.27335
82.22	9.21592
82.44	6.11991
82.66	3.91215
82.88	8.93102
83.1	8.7847
83.32	2.70642
83.54	9.84041
83.76	11.6465
83.98	2.07078
84.2	7.4009
84.42	8.30423
84.64	8.62339
84.86	10.6738
85.08	2.89195
85.3	14.1457
85.52	12.2392
85.74	0.225368
85.96	11.2677
86.18	1.12523
86.4	6.04805
86.62	6.72533
86.84	6.78688
87.06	1.27737
87.28	9.79553
87.5	7.74618
87.72	6.73978
87.94	10.0459
88.16	8.17489
88.38	7.41202
88.6	10.725
88.82	3.72641
89.04	13.7678
89.26	11.0533
89.48	10.2388
89.7	2.88056
89.92	6.15977
