Measurement: Powder, Xray Data XY Processed
Mineral: Annabergite
Rruff sample: R050462
Ideal chemistry: Ni^2+^_3_(As^5+^O_4_)_2_8H_2_O
Locality: Plaka mine, Laurium, Attica, Greece
Source: University of Arizona Mineral Museum
Description: Green bladed crystals
Diffraction sample description: Powder
Measured chemistry: (Ni_2.97_Zn_0.03_)_Σ=3_(As_1.00_O_4_)_2_·8H_2_O; lighter vein: (Ni_2.95_Zn_0.05_)_Σ=3_(As_1.00_O_4_)_2_·8H_2_O
Cell parameters: a: 10.192(1) b: 13.3384(8) c: 4.730(1) alpha: 90. beta: 104.98(1) gamma: 90. volume: 621.2(1) crystal system: monoclinic
x	intensity
5	0
5.22	20.276
5.44	13.333
5.66	15.792
5.88	13.543
6.1	17.617
6.32	6.679
6.54	10.829
6.76	4.658
6.98	0.466
7.2	23.743
7.42	13.82
7.64	10.93
7.86	24.857
8.08	27.961
8.3	15.102
8.52	6.074
8.74	16.237
8.96	7.648
9.18	11.828
9.4	8.054
9.62	14.882
9.84	17.119
10.06	9.911
10.28	2.575
10.5	10.95
10.72	4.267
10.94	22.484
11.16	95.012
11.38	37.527
11.6	7.402
11.82	5.263
12.04	11.079
12.26	10.74
12.48	2.169
12.7	17.093
12.92	33.724
13.14	109.363
13.36	2181.02
13.58	81.031
13.8	15.473
14.02	0.649
14.24	20.724
14.46	0.8
14.68	18.926
14.9	2.598
15.12	12.298
15.34	9.65
15.56	20.704
15.78	5.595
16	17.294
16.22	19.817
16.44	22.814
16.66	6.359
16.88	1.126
17.1	19.111
17.32	12.2
17.54	2.619
17.76	23.428
17.98	23.97
18.2	12.646
18.42	3.652
18.64	5.552
18.86	20.834
19.08	7.211
19.3	16.616
19.52	13.753
19.74	8.217
19.96	6.384
20.18	18.077
20.4	178.369
20.62	0.554
20.84	0.577
21.06	22.44
21.28	5.962
21.5	12.904
21.72	11.354
21.94	44.333
22.16	12.869
22.38	22.955
22.6	27.736
22.82	8.895
23.04	23.578
23.26	8.368
23.48	13.389
23.7	12.079
23.92	15.315
24.14	1.464
24.36	18.833
24.58	29.851
24.8	10.71
25.02	2.034
25.24	16.965
25.46	4.508
25.68	3.192
25.9	7.805
26.12	1.223
26.34	27.896
26.56	22.625
26.78	69.61
27	25.063
27.22	3.26
27.44	21.444
27.66	17.718
27.88	255.75
28.1	132.331
28.32	36.814
28.54	13.842
28.76	3.533
28.98	8.897
29.2	15.295
29.42	22.108
29.64	23.806
29.86	75.729
30.08	156.669
30.3	22.504
30.52	18.302
30.74	24.349
30.96	11.211
31.18	18.01
31.4	13.099
31.62	10.943
31.84	5.062
32.06	10.627
32.28	0.671
32.5	62.365
32.72	34.417
32.94	151.235
33.16	45.571
33.38	131.56
33.6	9.47
33.82	11.451
34.04	76.633
34.26	15.533
34.48	24.519
34.7	6.684
34.92	8.389
35.14	16.716
35.36	47.294
35.58	80.83
35.8	10.747
36.02	0.425
36.24	16.829
36.46	3.207
36.68	39.948
36.9	68.11
37.12	21.455
37.34	0.616
37.56	10.029
37.78	0.03
38	18.018
38.22	15.013
38.44	0.56
38.66	15.662
38.88	39.3
39.1	102.967
39.32	69.23
39.54	13.011
39.76	22.808
39.98	6.984
40.2	8.746
40.42	22.429
40.64	31.611
40.86	20.352
41.08	22.87
41.3	27.443
41.52	32.339
41.74	20.489
41.96	11.975
42.18	5.658
42.4	7.587
42.62	5.456
42.84	10.277
43.06	7.421
43.28	40.933
43.5	50.221
43.72	41.955
43.94	48.017
44.16	19.427
44.38	15.617
44.6	7.261
44.82	14.892
45.04	3.265
45.26	33.775
45.48	18.9
45.7	12.486
45.92	0.655
46.14	14.728
46.36	27.448
46.58	1.106
46.8	27.043
47.02	27.92
47.24	34.488
47.46	9.047
47.68	29.332
47.9	59.266
48.12	22.36
48.34	0.574
48.56	7.546
48.78	4.959
49	9.637
49.22	3.721
49.44	7.294
49.66	10.729
49.88	7.228
50.1	42.06
50.32	10.877
50.54	26.821
50.76	2.867
50.98	10.657
51.2	22.109
51.42	26.187
51.64	26.121
51.86	11.09
52.08	29.887
52.3	12.782
52.52	12.253
52.74	9.936
52.96	14.126
53.18	14.466
53.4	24.715
53.62	30.967
53.84	10.483
54.06	17.648
54.28	22.175
54.5	3.154
54.72	28.861
54.94	37.366
55.16	73.775
55.38	27.828
55.6	70.497
55.82	66.45
56.04	27.087
56.26	26.83
56.48	13.753
56.7	18.552
56.92	17.976
57.14	0.547
57.36	19.312
57.58	2.068
57.8	21.176
58.02	21.857
58.24	14.613
58.46	7.896
58.68	4.882
58.9	7.488
59.12	24.035
59.34	15.276
59.56	14.401
59.78	11.072
60	22.155
60.22	2.407
60.44	16.164
60.66	25.938
60.88	22.708
61.1	23.443
61.32	4.162
61.54	26.599
61.76	6.081
61.98	17.023
62.2	17.103
62.42	27.549
62.64	32.682
62.86	14.446
63.08	11.664
63.3	5.348
63.52	11.186
63.74	3.988
63.96	19.118
64.18	50.541
64.4	16.325
64.62	2.314
64.84	22.358
65.06	1.027
65.28	4.58
65.5	21.632
65.72	20.478
65.94	22.459
66.16	12.187
66.38	26.867
66.6	27.453
66.82	22.828
67.04	13.998
67.26	26.372
67.48	2.669
67.7	19.404
67.92	19.847
68.14	10.847
68.36	12.864
68.58	27.295
68.8	23.211
69.02	5.537
69.24	15.759
69.46	8.004
69.68	36.428
69.9	19.682
70.12	22.72
70.34	1.683
70.56	31.767
70.78	39.592
71	33.493
71.22	13.162
71.44	27.07
71.66	17.059
71.88	18.288
72.1	13.389
72.32	10.882
72.54	0.414
72.76	12.554
72.98	4.653
73.2	15.029
73.42	25.077
73.64	9.516
73.86	27.481
74.08	22.815
74.3	12.807
74.52	34.432
74.74	12.169
74.96	10.865
75.18	13.5
75.4	16.053
75.62	19.767
75.84	7.992
76.06	21.178
76.28	16.408
76.5	11.482
76.72	20.104
76.94	4.829
77.16	23.497
77.38	8.327
77.6	16.503
77.82	5.699
78.04	4.715
78.26	1.992
78.48	39.385
78.7	29.306
78.92	18.974
79.14	2.108
79.36	24.208
79.58	3.476
79.8	8.015
80.02	9.575
80.24	0.048
80.46	16.927
80.68	27.57
80.9	19.765
81.12	26.749
81.34	25.716
81.56	21.726
81.78	26.966
82	12.252
82.22	9.138
82.44	9.867
82.66	25.642
82.88	12.72
83.1	7.906
83.32	17.019
83.54	10.205
83.76	11.58
83.98	23.723
84.2	11.734
84.42	25.726
84.64	5.35
84.86	4.162
85.08	23.718
85.3	2.477
85.52	21.098
85.74	14.648
85.96	8.662
86.18	16.233
86.4	7.483
86.62	8.581
86.84	41.281
87.06	21.321
87.28	12.053
87.5	14.441
87.72	26.794
87.94	13.237
88.16	5.644
88.38	24.271
88.6	25.723
88.82	4.963
89.04	22.678
89.26	9.709
89.48	17.925
89.7	8.912
89.92	20.481
