Measurement: Powder, Xray Data XY Processed
Mineral: Annite
Rruff sample: R060211
Ideal chemistry: KFe^2+^_3_AlSi_3_O_10_(OH)_2_
Locality: Mont Saint-Hilaire, Rouville County, Quebec, Canada
Source: Royal Ontario Museum
Description: Black platy fragment
Diffraction sample description: Powder
Measured chemistry: (K_0.94_[box]_0.03_Na_0.02_)(Fe^2+^_2.07_Mg_0.57_Mn_0.33_Ti_0.03_)(Si_2.98_Al_1.02_)O_10_((OH)_1.72_F_0.28_)
Cell parameters: a: 5.465(2) b: 9.281(1) c: 10.2595(6) alpha: 90. beta: 99.73(2) gamma: 90. volume: 512.9(2) crystal system: monoclinic
x	intensity
5	0
5.22	2.675
5.44	6.985
5.66	8.44
5.88	10.042
6.1	18.21
6.32	13.323
6.54	14.924
6.76	1.178
6.98	18.83
7.2	5.231
7.42	7.204
7.64	26.585
7.86	6.311
8.08	2.845
8.3	0.77
8.52	50.091
8.74	416.442
8.96	67.964
9.18	11.37
9.4	13.298
9.62	16.808
9.84	2.259
10.06	8.112
10.28	8.472
10.5	14.119
10.72	1.884
10.94	12.563
11.16	12.555
11.38	4.922
11.6	5.786
11.82	0.911
12.04	2.298
12.26	4.116
12.48	14.26
12.7	7.728
12.92	9.168
13.14	14.458
13.36	23.112
13.58	8.483
13.8	1.488
14.02	1.704
14.24	19.74
14.46	17.147
14.68	16.834
14.9	0.988
15.12	7.589
15.34	12.45
15.56	7.449
15.78	13.266
16	13.327
16.22	4.322
16.44	16.098
16.66	13.701
16.88	3.847
17.1	6.112
17.32	5.99
17.54	14.173
17.76	11.295
17.98	2.943
18.2	23.216
18.42	1.76
18.64	2.125
18.86	21.863
19.08	7.283
19.3	3.326
19.52	1.717
19.74	9.908
19.96	0.012
20.18	8.469
20.4	6.508
20.62	24.594
20.84	13.895
21.06	8.655
21.28	27.801
21.5	15.784
21.72	1.168
21.94	12.762
22.16	10.52
22.38	5.591
22.6	9.219
22.82	0.695
23.04	5.824
23.26	1.636
23.48	3.044
23.7	0.477
23.92	22.84
24.14	20.834
24.36	19.735
24.58	7.015
24.8	11.445
25.02	1.505
25.24	2.18
25.46	1.063
25.68	4.931
25.9	23.751
26.12	11.38
26.34	11.565
26.56	163.918
26.78	15.776
27	2.578
27.22	1.513
27.44	19.881
27.66	5.629
27.88	19.811
28.1	18.2
28.32	16.281
28.54	7.748
28.76	8.81
28.98	6.119
29.2	1.938
29.42	12.046
29.64	20.417
29.86	0.669
30.08	5.122
30.3	3.841
30.52	7.702
30.74	8.166
30.96	12.912
31.18	12.735
31.4	10.956
31.62	2.48
31.84	1.563
32.06	11.591
32.28	14.77
32.5	12.947
32.72	14.8
32.94	19.919
33.16	1.573
33.38	8.22
33.6	8.895
33.82	21.072
34.04	33.234
34.26	10.115
34.48	6.644
34.7	4.078
34.92	14.964
35.14	7.127
35.36	22.193
35.58	46.003
35.8	6.145
36.02	3.782
36.24	13.473
36.46	14.282
36.68	23.53
36.9	9.138
37.12	12.73
37.34	10.492
37.56	1.103
37.78	16.629
38	16.03
38.22	17.949
38.44	18.483
38.66	6.13
38.88	4.055
39.1	19.405
39.32	10.876
39.54	12.307
39.76	19.784
39.98	1.602
40.2	12.703
40.42	8.168
40.64	9.465
40.86	2.853
41.08	5.034
41.3	16.613
41.52	31.06
41.74	1.121
41.96	6.702
42.18	15.8
42.4	2.914
42.62	3.081
42.84	2.256
43.06	16.764
43.28	13.585
43.5	22.137
43.72	2.531
43.94	4.09
44.16	21.698
44.38	9.724
44.6	8.334
44.82	17.33
45.04	44.338
45.26	31.834
45.48	15.907
45.7	0.257
45.92	0.783
46.14	15.445
46.36	11.676
46.58	7.009
46.8	19.138
47.02	6.224
47.24	30.92
47.46	5.935
47.68	17.587
47.9	7.425
48.12	11.174
48.34	12.412
48.56	5.342
48.78	8.849
49	17.592
49.22	4.952
49.44	13.554
49.66	9.92
49.88	5.207
50.1	18.09
50.32	1.039
50.54	7.565
50.76	6.113
50.98	9.933
51.2	18.461
51.42	16.591
51.64	3.776
51.86	5.348
52.08	1.23
52.3	8.915
52.52	0.783
52.74	0.963
52.96	13.57
53.18	13
53.4	4.129
53.62	1.261
53.84	12.217
54.06	14.31
54.28	33.882
54.5	19.978
54.72	15.358
54.94	2.358
55.16	12.457
55.38	12.633
55.6	11.31
55.82	17.035
56.04	3.086
56.26	3.037
56.48	10.52
56.7	10.619
56.92	10.503
57.14	0.649
57.36	1.59
57.58	10.948
57.8	1.934
58.02	10.275
58.24	6.185
58.46	2.949
58.68	10.954
58.9	0.765
59.12	12.279
59.34	22.746
59.56	27.021
59.78	18.609
60	0.903
60.22	16.513
60.44	0.412
60.66	2.489
60.88	6.901
61.1	0.634
61.32	19.422
61.54	8.856
61.76	16.386
61.98	22.621
62.2	19.343
62.42	15.322
62.64	20.712
62.86	17.455
63.08	0.838
63.3	0.237
63.52	22.338
63.74	18.695
63.96	4.952
64.18	0.363
64.4	29.137
64.62	9.85
64.84	23.827
65.06	19.121
65.28	13.821
65.5	8.854
65.72	21.271
65.94	12.329
66.16	6.167
66.38	8.725
66.6	18.26
66.82	5.145
67.04	0.883
67.26	16.051
67.48	1.156
67.7	18.908
67.92	14.682
68.14	33.469
68.36	2.333
68.58	19.188
68.8	15.038
69.02	8.867
69.24	7.652
69.46	2.698
69.68	23.393
69.9	4.488
70.12	10.855
70.34	16.378
70.56	1.874
70.78	23.116
71	9.528
71.22	9.814
71.44	15.84
71.66	18.351
71.88	20.664
72.1	3.746
72.32	5.952
72.54	0.048
72.76	12.579
72.98	6.054
73.2	16.213
73.42	23.611
73.64	13.028
73.86	3.734
74.08	2.174
74.3	7.666
74.52	0.463
74.74	2.165
74.96	5.628
75.18	17.606
75.4	11.535
75.62	15.376
75.84	8.651
76.06	5.386
76.28	5.791
76.5	18.05
76.72	9.437
76.94	7.378
77.16	9.66
77.38	5.878
77.6	15.008
77.82	10.404
78.04	2.317
78.26	4.562
78.48	20.025
78.7	4.232
78.92	10.738
79.14	3.036
79.36	23.206
79.58	17.148
79.8	11.261
80.02	0.598
80.24	4.69
80.46	9.63
80.68	0.282
80.9	4.244
81.12	1.284
81.34	14.66
81.56	9.384
81.78	14.483
82	16.023
82.22	19.897
82.44	8.176
82.66	23.886
82.88	7.178
83.1	9.684
83.32	11.825
83.54	11.293
83.76	8.126
83.98	4.461
84.2	9.886
84.42	9.254
84.64	1.029
84.86	13.002
85.08	26.356
85.3	0.61
85.52	11.02
85.74	6.982
85.96	16.932
86.18	2.066
86.4	27.94
86.62	15.938
86.84	17.678
87.06	19.259
87.28	23.924
87.5	15.786
87.72	0.109
87.94	18.896
88.16	20.805
88.38	15.06
88.6	26.51
88.82	7.777
89.04	18.455
89.26	31.366
89.48	8.843
89.7	7.559
89.92	13.626
