Measurement: Powder, Xray Data XY Processed
Mineral: Anorthite
Rruff sample: R060082
Ideal chemistry: CaAl_2_Si_2_O_8_
Locality: Pinacate Mountains, Sonora, Mexico
Source: University of Arizona Mineral Museum
Description: Colorless crystal fragment
Diffraction sample description: Powder
Measured chemistry: (Na_0.40_K_0.02_Ca_0.58_)Al_1.58_Si_2.42_O_8_
Cell parameters: a: 8.1753(4) b: 12.8785(6) c: 7.1058(3) alpha: 93.420(5) beta: 116.097(4) gamma: 90.416(5) volume: 670.20(4) crystal system: triclinic
x	intensity
5	0
5.22	12.837
5.44	21.369
5.66	19.195
5.88	9.428
6.1	13.949
6.32	23.764
6.54	29.451
6.76	8.643
6.98	2.218
7.2	0.37
7.42	9.214
7.64	4.15
7.86	0.459
8.08	6.209
8.3	2.768
8.52	6.161
8.74	2.5
8.96	11.498
9.18	1.871
9.4	2.893
9.62	0.306
9.84	5.651
10.06	1.249
10.28	2.839
10.5	3.941
10.72	2.182
10.94	12.592
11.16	3.827
11.38	2.032
11.6	8.215
11.82	6.568
12.04	1.067
12.26	5.327
12.48	0.656
12.7	5.793
12.92	3.81
13.14	3.902
13.36	4.626
13.58	2.768
13.8	11.666
14.02	7.498
14.24	2.182
14.46	7.123
14.68	2.019
14.9	3.962
15.12	3.061
15.34	3.097
15.56	3.162
15.78	7.247
16	3.391
16.22	8.566
16.44	3.771
16.66	2.893
16.88	4.88
17.1	3.952
17.32	8.838
17.54	7.034
17.76	0.099
17.98	3.836
18.2	5.678
18.42	3.462
18.64	4.282
18.86	5.105
19.08	2.147
19.3	2.21
19.52	1.284
19.74	1.292
19.96	1.204
20.18	3.315
20.4	5.44
20.62	6.496
20.84	3.47
21.06	0.578
21.28	3.484
21.5	4.399
21.72	3.422
21.94	1.192
22.16	18.998
22.38	5.924
22.6	2.699
22.82	32.494
23.04	4.477
23.26	5.598
23.48	2.477
23.7	109.219
23.92	7.938
24.14	5.947
24.36	2.023
24.58	56.846
24.8	0.88
25.02	1.005
25.24	0.151
25.46	3.963
25.68	21.264
25.9	8.343
26.12	10.382
26.34	2.24
26.56	49.057
26.78	0.163
27	6.719
27.22	1.465
27.44	7.214
27.66	53.908
27.88	239.097
28.1	287.017
28.32	16.106
28.54	60.043
28.76	4.082
28.98	3.41
29.2	0.525
29.42	6.629
29.64	32.735
29.86	5.955
30.08	7.4
30.3	28.36
30.52	67.063
30.74	14.11
30.96	0.316
31.18	2.561
31.4	2.47
31.62	78.619
31.84	8.905
32.06	3.212
32.28	4.574
32.5	0.409
32.72	7.232
32.94	0.365
33.16	2.635
33.38	1.171
33.6	1.832
33.82	26.97
34.04	4.014
34.26	1.074
34.48	2.798
34.7	5.503
34.92	3.518
35.14	2.604
35.36	1.935
35.58	14.979
35.8	39.803
36.02	9.051
36.24	4.04
36.46	4.05
36.68	5.043
36.9	13.031
37.12	9.029
37.34	7.127
37.56	7.955
37.78	12.138
38	6.873
38.22	7.88
38.44	5.642
38.66	4.434
38.88	5.427
39.1	24.427
39.32	3.598
39.54	9.626
39.76	13.061
39.98	8.882
40.2	1.988
40.42	5.184
40.64	4.193
40.86	5.151
41.08	5.03
41.3	0.118
41.52	3.583
41.74	6.441
41.96	3.249
42.18	4.625
42.4	13.431
42.62	11.279
42.84	1.534
43.06	23.822
43.28	9.103
43.5	3.183
43.72	1.719
43.94	5.383
44.16	2.482
44.38	3.499
44.6	2.479
44.82	5.454
45.04	9.404
45.26	3.228
45.48	4.147
45.7	5.887
45.92	0.946
46.14	6.977
46.36	5.106
46.58	9.255
46.8	2.351
47.02	4.711
47.24	16.753
47.46	2.502
47.68	0.376
47.9	0.198
48.12	8.252
48.34	13.016
48.56	21.841
48.78	0.473
49	1.197
49.22	3.025
49.44	14.572
49.66	12.442
49.88	31.406
50.1	6.691
50.32	8.497
50.54	6.387
50.76	12.498
50.98	6.16
51.2	3.306
51.42	1.406
51.64	16.922
51.86	5.944
52.08	6.071
52.3	6.972
52.52	3.809
52.74	9.994
52.96	2.08
53.18	2.128
53.4	7.764
53.62	6.108
53.84	7.97
54.06	1.011
54.28	1.27
54.5	6.39
54.72	5.607
54.94	4.988
55.16	3.986
55.38	3.019
55.6	8.059
55.82	0.841
56.04	1.928
56.26	0.087
56.48	7.85
56.7	2.846
56.92	0.039
57.14	37.88
57.36	5.877
57.58	4.94
57.8	2.885
58.02	4.879
58.24	3.868
58.46	0.083
58.68	6.087
58.9	6.066
59.12	14.812
59.34	1.159
59.56	0.863
59.78	1.614
60	7.53
60.22	0.513
60.44	5.724
60.66	4.494
60.88	4.632
61.1	5.511
61.32	0.439
61.54	1.339
61.76	2.157
61.98	1.034
62.2	7.955
62.42	3.803
62.64	5.645
62.86	6.491
63.08	5.268
63.3	8.221
63.52	6.367
63.74	1.397
63.96	4.603
64.18	15.71
64.4	6.825
64.62	5.034
64.84	5.087
65.06	8.221
65.28	0.341
65.5	0.518
65.72	0.642
65.94	5.921
66.16	2.899
66.38	11.843
66.6	5.768
66.82	8.711
67.04	3.549
67.26	4.616
67.48	11.443
67.7	1.219
67.92	6.812
68.14	7.687
68.36	8.374
68.58	9.184
68.8	3.994
69.02	3.896
69.24	12.003
69.46	3.798
69.68	6.648
69.9	2.939
70.12	31.167
70.34	10.41
70.56	8.43
70.78	4.022
71	5.735
71.22	5.047
71.44	7.298
71.66	3.436
71.88	0.626
72.1	5.774
72.32	4.689
72.54	2.637
72.76	6.704
72.98	4.424
73.2	8.451
73.42	3.973
73.64	4.866
73.86	1.719
74.08	4.67
74.3	8.813
74.52	3.782
74.74	10.894
74.96	9.892
75.18	0.873
75.4	6.018
75.62	0.949
75.84	3.985
76.06	4.022
76.28	4.025
76.5	4.023
76.72	4.993
76.94	6.119
77.16	1.961
77.38	3.917
77.6	2.833
77.82	0.616
78.04	3.524
78.26	4.568
78.48	4.568
78.7	8.921
78.92	4.978
79.14	3.127
79.36	10.319
79.58	1.471
79.8	7.643
80.02	0.785
80.24	2.061
80.46	1.14
80.68	3.277
80.9	5.352
81.12	8.292
81.34	4.245
81.56	1.934
81.78	2.744
82	5.594
82.22	4.42
82.44	8.25
82.66	6.949
82.88	0.22
83.1	0.617
83.32	6.693
83.54	10.611
83.76	2.599
83.98	3.801
84.2	1.812
84.42	7.909
84.64	7.955
84.86	7.122
85.08	2.207
85.3	4.258
85.52	0.794
85.74	3.048
85.96	6.369
86.18	5.538
86.4	2.425
86.62	3.361
86.84	1.37
87.06	2.547
87.28	0.49
87.5	4.514
87.72	4.708
87.94	3.771
88.16	1.709
88.38	5.573
88.6	1.551
88.82	2.589
89.04	5.713
89.26	4.746
89.48	3.692
89.7	3.742
89.92	0.985
