Measurement: Powder, Xray Data XY Processed
Mineral: Anorthite
Rruff sample: R060275
Ideal chemistry: CaAl_2_Si_2_O_8_
Locality: Madagascar
Source: Herb Obodda
Description: Colorless to light gray fragment
Diffraction sample description: Powder
Measured chemistry: (Na_0.44_K_0.03_Ca_0.53_)_Î£=1_Al_1.53_Si_2.47_O_8_
Cell parameters: a: 8.1789(6) b: 12.866(1) c: 7.1117(2) alpha: 93.531(7) beta: 116.246(5) gamma: 89.92(1) volume: 669.67(7) crystal system: triclinic
x	intensity
5	0
5.22	2.497
5.44	4.181
5.66	2.425
5.88	3.992
6.1	15.942
6.32	13.758
6.54	22.754
6.76	6.617
6.98	4.551
7.2	6.403
7.42	10.451
7.64	6.407
7.86	10.356
8.08	4.959
8.3	6.309
8.52	7.801
8.74	9.159
8.96	7.207
9.18	5.175
9.4	3.54
9.62	0.316
9.84	1.54
10.06	9.638
10.28	2.7
10.5	5.847
10.72	11.953
10.94	7.246
11.16	2.36
11.38	3.716
11.6	3.008
11.82	0.093
12.04	9.134
12.26	3.579
12.48	1.651
12.7	5.562
12.92	0.637
13.14	0.275
13.36	3.466
13.58	5.548
13.8	16.513
14.02	7.573
14.24	8.656
14.46	2.578
14.68	0.824
14.9	1.219
15.12	6.379
15.34	4.403
15.56	6.45
15.78	15.643
16	8.644
16.22	3.631
16.44	6.529
16.66	13.63
16.88	7.689
17.1	8.853
17.32	4.77
17.54	6.202
17.76	11.178
17.98	12.064
18.2	3.987
18.42	1.982
18.64	5.911
18.86	2.877
19.08	10.799
19.3	0.928
19.52	5.941
19.74	2.954
19.96	8.932
20.18	4.195
20.4	0.822
20.62	2.111
20.84	2.997
21.06	2.132
21.28	4.98
21.5	14.806
21.72	5.493
21.94	23.069
22.16	8.773
22.38	1.37
22.6	4.011
22.82	8.665
23.04	1.409
23.26	0.183
23.48	1.938
23.7	83.398
23.92	22.366
24.14	0.736
24.36	26.836
24.58	25.598
24.8	2.402
25.02	2.504
25.24	6.86
25.46	1.853
25.68	68.029
25.9	2.764
26.12	5.513
26.34	10.492
26.56	29.872
26.78	4.657
27	6.594
27.22	5.288
27.44	2.145
27.66	60.856
27.88	262.32
28.1	336.404
28.32	22.244
28.54	24.053
28.76	1.113
28.98	4.432
29.2	3.53
29.42	6.617
29.64	43.719
29.86	3.245
30.08	7.678
30.3	16.382
30.52	44.248
30.74	15.318
30.96	7.703
31.18	1.073
31.4	4.342
31.62	18.735
31.84	18.119
32.06	6.57
32.28	5.408
32.5	1.519
32.72	8.68
32.94	4.852
33.16	6.181
33.38	6.286
33.6	4.387
33.82	28.063
34.04	5.917
34.26	3.704
34.48	3.39
34.7	1.188
34.92	0.841
35.14	3.877
35.36	3.687
35.58	54.415
35.8	11.316
36.02	25.188
36.24	1.101
36.46	2.175
36.68	8.206
36.9	7.515
37.12	7.787
37.34	11.126
37.56	2.177
37.78	15.154
38	7.352
38.22	4.35
38.44	3.365
38.66	3.379
38.88	6.388
39.1	4.462
39.32	21.537
39.54	1.15
39.76	12.238
39.98	3.28
40.2	6.194
40.42	2.944
40.64	13.851
40.86	0.723
41.08	1.684
41.3	3.396
41.52	4.202
41.74	0.217
41.96	10.72
42.18	5.519
42.4	14.483
42.62	12.929
42.84	6.052
43.06	9.194
43.28	7.647
43.5	1.066
43.72	4.226
43.94	1.353
44.16	6.464
44.38	0.461
44.6	4.537
44.82	7.209
45.04	13.185
45.26	0.112
45.48	9.959
45.7	8.551
45.92	2.343
46.14	4.494
46.36	3.51
46.58	5.765
46.8	15.267
47.02	3.815
47.24	11.835
47.46	6.531
47.68	1.572
47.9	7.507
48.12	0.714
48.34	12.997
48.56	16.598
48.78	2.314
49	7.674
49.22	8.061
49.44	7.033
49.66	8.847
49.88	22.735
50.1	6.721
50.32	1.49
50.54	6.57
50.76	18.92
50.98	8.461
51.2	14.52
51.42	13.654
51.64	25.652
51.86	11.024
52.08	0.127
52.3	3.126
52.52	12.237
52.74	4.251
52.96	7.141
53.18	5.241
53.4	11.103
53.62	0.778
53.84	5.609
54.06	3.013
54.28	5.279
54.5	5.496
54.72	6.743
54.94	6.939
55.16	0.14
55.38	0.74
55.6	5.364
55.82	2.58
56.04	1.696
56.26	9.551
56.48	5.657
56.7	0.839
56.92	5.824
57.14	7.792
57.36	5.65
57.58	0.638
57.8	1.574
58.02	0.423
58.24	8.287
58.46	3.543
58.68	4.57
58.9	3.285
59.12	4.064
59.34	9.152
59.56	0.661
59.78	11.436
60	4.423
60.22	7.405
60.44	3.503
60.66	8.667
60.88	2.179
61.1	2.998
61.32	1.818
61.54	0.404
61.76	7.158
61.98	9.854
62.2	7.559
62.42	20.361
62.64	7.128
62.86	5.898
63.08	6.941
63.3	1.191
63.52	6.31
63.74	15.568
63.96	11.952
64.18	3.159
64.4	1.518
64.62	5.643
64.84	8.883
65.06	0.982
65.28	6.109
65.5	3.738
65.72	1.75
65.94	3.734
66.16	1.486
66.38	6.343
66.6	3.451
66.82	1.852
67.04	9.942
67.26	0.649
67.48	5.426
67.7	13.206
67.92	18.974
68.14	5.817
68.36	10.789
68.58	5.77
68.8	8.948
69.02	12.813
69.24	1.994
69.46	5.443
69.68	10.659
69.9	3.034
70.12	5.322
70.34	0.586
70.56	0.651
70.78	8.981
71	10.315
71.22	2.061
71.44	7.576
71.66	4.839
71.88	2.716
72.1	4.771
72.32	3.667
72.54	1.801
72.76	6.773
72.98	3.673
73.2	5.609
73.42	12.568
73.64	0.334
73.86	1.079
74.08	1.776
74.3	0.26
74.52	0.749
74.74	2.562
74.96	11.718
75.18	10.736
75.4	4.024
75.62	5.109
75.84	4.098
76.06	10.188
76.28	7.419
76.5	1.346
76.72	2.867
76.94	1.866
77.16	9.72
77.38	3.749
77.6	0.847
77.82	1.618
78.04	0.498
78.26	2.452
78.48	5.475
78.7	1.652
78.92	2.599
79.14	7.707
79.36	3.958
79.58	2.133
79.8	1.504
80.02	5.667
80.24	3.818
80.46	0.933
80.68	1.038
80.9	3.341
81.12	4.177
81.34	2.036
81.56	3.688
81.78	1.371
82	5.149
82.22	4.706
82.44	5.388
82.66	5.137
82.88	3.036
83.1	4.881
83.32	5.739
83.54	2.604
83.76	6.722
83.98	7.027
84.2	0.143
84.42	3.363
84.64	1.554
84.86	0.703
85.08	6.844
85.3	3.893
85.52	7.986
85.74	5.85
85.96	5.115
86.18	2.046
86.4	6.885
86.62	8.024
86.84	0.905
87.06	0.857
87.28	3.829
87.5	4.82
87.72	1.848
87.94	5.912
88.16	1.981
88.38	5.918
88.6	6.036
88.82	3.257
89.04	14.281
89.26	4.6
89.48	3.06
89.7	0.126
89.92	5.631
