Measurement: Powder, Xray Data XY Processed
Mineral: Antimony
Rruff sample: R050654
Ideal chemistry: Sb
Locality: Sarawak, Borneo
Source: University of Arizona Mineral Museum
Description: Silver metallic crystals
Diffraction sample description: Powder
Measured chemistry: Sb
Cell parameters: a: 4.4962(4) b: 4.4962(4) c: 4.4962(4) alpha: 57.010(7) beta: 57.010(7) gamma: 57.010(7) volume: 59.84(1) crystal system: rhombohedral
x	intensity
5	0
5.22	3.103
5.44	15.932
5.66	12.099
5.88	3.465
6.1	2.885
6.32	5.477
6.54	1.251
6.76	5.693
6.98	0.134
7.2	0.474
7.42	0.852
7.64	4.169
7.86	1.487
8.08	3.715
8.3	0.869
8.52	3.98
8.74	1.022
8.96	4.846
9.18	2.816
9.4	7.772
9.62	6.885
9.84	4.013
10.06	0.105
10.28	5.113
10.5	4.17
10.72	1.334
10.94	0.337
11.16	2.34
11.38	2.39
11.6	2.495
11.82	2.495
12.04	2.579
12.26	3.619
12.48	2.636
12.7	2.651
12.92	0.682
13.14	0.386
13.36	3.685
13.58	0.736
13.8	0.733
14.02	0.759
14.24	1.772
14.46	0.273
14.68	3.744
14.9	1.788
15.12	0.194
15.34	3.826
15.56	0.856
15.78	2.821
16	2.824
16.22	0.176
16.44	1.781
16.66	1.767
16.88	2.791
17.1	1.78
17.32	1.783
17.54	0.813
17.76	1.814
17.98	2.814
18.2	0.787
18.42	1.821
18.64	4.801
18.86	2.813
19.08	2.795
19.3	2.827
19.52	0.797
19.74	3.75
19.96	2.702
20.18	1.699
20.4	6.744
20.62	0.228
20.84	0.265
21.06	6.773
21.28	0.777
21.5	2.823
21.72	0.797
21.94	2.779
22.16	0.223
22.38	7.738
22.6	0.676
22.82	1.557
23.04	3.461
23.26	3.43
23.48	3.433
23.7	7.383
23.92	11.285
24.14	1.24
24.36	1.235
24.58	2.242
24.8	1.221
25.02	1.217
25.24	3.231
25.46	3.344
25.68	5.257
25.9	3.224
26.12	3.363
26.34	2.47
26.56	1.381
26.78	16.305
27	0.142
27.22	5.014
27.44	1.143
27.66	0.626
27.88	4.401
28.1	4.243
28.32	3.978
28.54	12.843
28.76	78.637
28.98	79.724
29.2	10.744
29.42	0.129
29.64	2.06
29.86	4.268
30.08	3.442
30.3	5.711
30.52	3.017
30.74	1.111
30.96	0.752
31.18	5.337
31.4	2.362
31.62	4.431
31.84	2.366
32.06	5.435
32.28	3.501
32.5	1.568
32.72	3.576
32.94	2.522
33.16	2.532
33.38	0.582
33.6	1.589
33.82	4.651
34.04	0.645
34.26	4.597
34.48	1.627
34.7	3.565
34.92	6.464
35.14	2.412
35.36	2.331
35.58	0.364
35.8	2.443
36.02	3.384
36.24	1.349
36.46	4.304
36.68	6.315
36.9	6.272
37.12	2.263
37.34	4.31
37.56	0.324
37.78	2.304
38	0.32
38.22	1.114
38.44	4.05
38.66	0.113
38.88	0.67
39.1	6.489
39.32	0.244
39.54	7.055
39.76	1.765
39.98	10.784
40.2	39.598
40.42	21.632
40.64	14.487
40.86	7.313
41.08	4.306
41.3	5.291
41.52	5.297
41.74	5.329
41.96	18.554
42.18	48.852
42.4	26.749
42.62	10.763
42.84	0.118
43.06	0.844
43.28	0.601
43.5	0.617
43.72	5.85
43.94	1.121
44.16	1.413
44.38	1.399
44.6	0.413
44.82	0.506
45.04	1.505
45.26	5.437
45.48	6.447
45.7	0.598
45.92	3.303
46.14	3.17
46.36	2.982
46.58	5.691
46.8	3.714
47.02	3.671
47.24	9.567
47.46	7.424
47.68	3.299
47.9	0.206
48.12	1.181
48.34	1.313
48.56	4.419
48.78	10.566
49	10.748
49.22	2.668
49.44	0.677
49.66	3.881
49.88	0.03
50.1	0.013
50.32	0.054
50.54	0.088
50.76	2.729
50.98	1.585
51.2	0.404
51.42	4.297
51.64	12.329
51.86	23.432
52.08	13.291
52.3	8.208
52.52	2.41
52.74	4.564
52.96	4.71
53.18	2.801
53.4	3.008
53.62	0.213
53.84	5.261
54.06	1.229
54.28	1.255
54.5	2.419
54.72	1.468
54.94	2.423
55.16	2.467
55.38	1.484
55.6	2.577
55.82	3.541
56.04	1.569
56.26	2.614
56.48	0.619
56.7	2.622
56.92	1.587
57.14	4.612
57.36	5.545
57.58	4.493
57.8	2.52
58.02	0.457
58.24	3.335
58.46	0.223
58.68	0.15
58.9	1.111
59.12	4.967
59.34	4.953
59.56	16.055
59.78	15.114
60	5.082
60.22	6.097
60.44	1.138
60.66	0.219
60.88	1.292
61.1	1.308
61.32	2.313
61.54	1.341
61.76	3.234
61.98	2.083
62.2	1.972
62.42	4.855
62.64	4.709
62.86	2.681
63.08	2.719
63.3	0.614
63.52	2.611
63.74	0.552
63.96	1.423
64.18	4.295
64.4	2.281
64.62	3.197
64.84	1.108
65.06	0.997
65.28	2.831
65.5	1.726
65.72	6.708
65.94	9.706
66.16	6.901
66.38	5.019
66.6	6.185
66.82	6.292
67.04	6.364
67.26	0.559
67.48	7.455
67.7	0.548
67.92	3.388
68.14	3.283
68.36	12.232
68.58	3.096
68.8	19.044
69.02	11.105
69.24	9.17
69.46	6.285
69.68	5.358
69.9	0.696
70.12	2.886
70.34	0.067
70.56	2.182
70.78	4.297
71	0.626
71.22	5.375
71.44	1.307
71.66	2.24
71.88	3.18
72.1	8.177
72.32	7.074
72.54	6.084
72.76	4.049
72.98	3.135
73.2	2.174
73.42	0.272
73.64	3.399
73.86	4.35
74.08	0.189
74.3	4.003
74.52	5.662
74.74	0.612
74.96	2.007
75.18	5.665
75.4	2.286
75.62	4.91
75.84	4.503
76.06	5.144
76.28	3.981
76.5	4.059
76.72	2.172
76.94	2.346
77.16	4.734
77.38	6.017
77.6	4.291
77.82	0.407
78.04	3.82
78.26	1.079
78.48	3.429
78.7	3.603
78.92	4.691
79.14	3.731
79.36	5.643
79.58	7.535
79.8	2.493
80.02	2.492
80.24	1.45
80.46	3.43
80.68	2.607
80.9	4.507
81.12	1.594
81.34	1.612
81.56	2.684
81.78	2.892
82	6.997
82.22	2.191
82.44	0.363
82.66	3.522
82.88	0.313
83.1	0.61
83.32	3.639
83.54	4.653
83.76	3.738
83.98	0.282
84.2	3.637
84.42	1.62
84.64	2.519
84.86	3.411
85.08	3.274
85.3	1.275
85.52	1.225
85.74	2.148
85.96	4.095
86.18	9.025
86.4	3.119
86.62	0.066
86.84	4.067
87.06	3.079
87.28	0.048
87.5	2.127
87.72	1.095
87.94	3.178
88.16	5.234
88.38	4.276
88.6	2.389
88.82	2.335
89.04	3.403
89.26	0.552
89.48	1.567
89.7	2.661
89.92	0.534
