Measurement: Powder, Xray Data XY Processed
Mineral: Antlerite
Rruff sample: R050212
Ideal chemistry: Cu^2+^_3_(S^6+^O_4_)(OH)_4_
Locality: Chuquicamata mine, Calama, Antofagasta Province, Chile
Source: John Dagenais
Description: Deep green tabular crystals
Diffraction sample description: Powder
Measured chemistry: Cu_3.00_S_1.00_O_4_(OH)_4_
Cell parameters: a: 8.2565(2) b: 6.0548(2) c: 12.0106(2) alpha: 90. beta: 90. gamma: 90. volume: 600.43(2) crystal system: orthorhombic
x	intensity
5	0
5.22	8.474
5.44	15.14
5.66	30.438
5.88	17.254
6.1	11.084
6.32	19.602
6.54	5.333
6.76	19.658
6.98	12.293
7.2	15.195
7.42	7.16
7.64	17.636
7.86	9.733
8.08	10.165
8.3	17.561
8.52	26.291
8.74	5.587
8.96	16.244
9.18	9.815
9.4	14.266
9.62	20.493
9.84	19.007
10.06	5.166
10.28	20.84
10.5	18.16
10.72	23.76
10.94	24.576
11.16	11.579
11.38	4.342
11.6	29.923
11.82	13.127
12.04	13.446
12.26	2.734
12.48	5.195
12.7	5.148
12.92	25.202
13.14	12.178
13.36	25.285
13.58	17.838
13.8	21.445
14.02	4.565
14.24	1.553
14.46	12.972
14.68	59.101
14.9	31.481
15.12	27.21
15.34	17.097
15.56	1.393
15.78	1.931
16	17.844
16.22	30.695
16.44	169.582
16.66	1.967
16.88	3.243
17.1	27.887
17.32	11.85
17.54	1.275
17.76	14.087
17.98	30.997
18.2	164.868
18.42	79.442
18.64	11.588
18.86	10.568
19.08	0.389
19.3	3.336
19.52	13.158
19.74	6.683
19.96	4.077
20.18	14.455
20.4	7.381
20.62	12.933
20.84	22.191
21.06	9.895
21.28	29.883
21.5	36.688
21.72	2.37
21.94	13.365
22.16	18.935
22.38	7.317
22.6	9.077
22.82	15.702
23.04	10.956
23.26	11.956
23.48	70.622
23.7	21.2
23.92	8.421
24.14	10.044
24.36	0.093
24.58	42.914
24.8	471.327
25.02	19.186
25.24	5.798
25.46	3.13
25.68	1.99
25.9	6.136
26.12	91.408
26.34	31.262
26.56	23.405
26.78	24.485
27	3.122
27.22	34.05
27.44	7.957
27.66	5.029
27.88	17.709
28.1	1.38
28.32	0.428
28.54	18.139
28.76	14.803
28.98	24.464
29.2	16.873
29.42	6.816
29.64	23.466
29.86	113.16
30.08	22.359
30.3	7.075
30.52	4.367
30.74	4.5
30.96	2.846
31.18	0.638
31.4	0.443
31.62	16.906
31.84	15.06
32.06	6.215
32.28	17.113
32.5	25.269
32.72	7.649
32.94	3.263
33.16	59.413
33.38	284.606
33.6	56.828
33.82	19.947
34.04	19.644
34.26	9.967
34.48	4.044
34.7	10.792
34.92	471.625
35.14	45.345
35.36	9.059
35.58	14.004
35.8	25.354
36.02	55.838
36.24	1.302
36.46	0.715
36.68	1.571
36.9	18.837
37.12	56.775
37.34	18.305
37.56	39.273
37.78	18.099
38	17.012
38.22	6.648
38.44	12.857
38.66	11.477
38.88	32.274
39.1	38.217
39.32	7.842
39.54	9.271
39.76	31.453
39.98	64.516
40.2	30.768
40.42	6.998
40.64	1.476
40.86	1.738
41.08	13.706
41.3	26.254
41.52	10.892
41.74	13.959
41.96	9.05
42.18	8.999
42.4	431.969
42.62	30.307
42.84	17.161
43.06	3.341
43.28	12.821
43.5	13.569
43.72	25.194
43.94	48.364
44.16	28.623
44.38	5.223
44.6	36.27
44.82	0.731
45.04	5.452
45.26	40.86
45.48	16.039
45.7	6.125
45.92	2.229
46.14	6.498
46.36	11.363
46.58	4.073
46.8	42.756
47.02	22.244
47.24	32.558
47.46	14.174
47.68	5.248
47.9	5.695
48.12	6.924
48.34	6.424
48.56	10.894
48.78	3.16
49	2.338
49.22	15.684
49.44	7.881
49.66	56.806
49.88	8.186
50.1	20.514
50.32	54.734
50.54	19.959
50.76	0.471
50.98	13.707
51.2	11.4
51.42	10.292
51.64	8.276
51.86	5.089
52.08	24.591
52.3	7.558
52.52	7.955
52.74	4.638
52.96	5.737
53.18	15.131
53.4	5.85
53.62	12.702
53.84	6.45
54.06	7.478
54.28	18.775
54.5	24.626
54.72	22.589
54.94	11.518
55.16	2.142
55.38	0.524
55.6	31.468
55.82	2.202
56.04	43.662
56.26	56.099
56.48	27.739
56.7	20.591
56.92	1.684
57.14	8.644
57.36	9.513
57.58	15.753
57.8	8.208
58.02	2.073
58.24	2.058
58.46	9.53
58.68	12.465
58.9	45.705
59.12	32.87
59.34	8.568
59.56	17.409
59.78	9.706
60	15.642
60.22	3.433
60.44	6.127
60.66	24.819
60.88	2.44
61.1	12.559
61.32	36.926
61.54	25.839
61.76	131.11
61.98	72.24
62.2	33.864
62.42	21.488
62.64	79.162
62.86	23.328
63.08	4.793
63.3	16.857
63.52	2.654
63.74	7.303
63.96	20.471
64.18	2.106
64.4	8.882
64.62	21.224
64.84	11.662
65.06	6.636
65.28	16.392
65.5	23.887
65.72	21.363
65.94	4.003
66.16	18.417
66.38	21.9
66.6	20.492
66.82	0.816
67.04	15.829
67.26	26.359
67.48	32.572
67.7	12.953
67.92	2.163
68.14	3.104
68.36	3.364
68.58	19.664
68.8	19.475
69.02	17.975
69.24	24.142
69.46	2.215
69.68	3.893
69.9	2.405
70.12	17.734
70.34	11.705
70.56	3.024
70.78	3.661
71	3.723
71.22	15.572
71.44	42.346
71.66	26.456
71.88	30.349
72.1	23.143
72.32	17.05
72.54	9.385
72.76	0.128
72.98	6.995
73.2	2.531
73.42	4.039
73.64	9.542
73.86	1.249
74.08	28.556
74.3	13.961
74.52	16.749
74.74	4.547
74.96	7.52
75.18	19.285
75.4	13.96
75.62	2.319
75.84	19.282
76.06	5.639
76.28	0.968
76.5	22.92
76.72	24.857
76.94	4.501
77.16	3.068
77.38	6.963
77.6	20.544
77.82	6.367
78.04	8.776
78.26	9.151
78.48	20.111
78.7	21.203
78.92	7.712
79.14	3.221
79.36	21.83
79.58	0.518
79.8	17.193
80.02	29.934
80.24	9.462
80.46	23.088
80.68	15.354
80.9	21.669
81.12	5.237
81.34	16.691
81.56	6.124
81.78	14.551
82	22.318
82.22	6.753
82.44	14.176
82.66	5.428
82.88	19.536
83.1	12.979
83.32	16.451
83.54	4.821
83.76	37.655
83.98	4.353
84.2	25.802
84.42	14.404
84.64	12.621
84.86	10.008
85.08	3.399
85.3	15.811
85.52	25.509
85.74	0.416
85.96	4.861
86.18	20.673
86.4	3.523
86.62	16.546
86.84	5.364
87.06	25.968
87.28	15.205
87.5	23.642
87.72	10.716
87.94	9.724
88.16	37.646
88.38	21.482
88.6	25.719
88.82	8.521
89.04	3.646
89.26	1.771
89.48	14.78
89.7	6.205
89.92	18.508
