Measurement: Powder, Xray Data XY Processed
Mineral: Aphthitalite
Rruff sample: R050651
Ideal chemistry: K_3_Na(S^6+^O_4_)_2_
Locality: Searles Lake, Trona, San Bernardino County, California, USA
Source: University of Arizona Mineral Museum
Description: Colorless hexagonal crystals displaying P-3m1 space group symmetry, associated with halite.
Diffraction sample description: Single crystal, powder profile is calculated
Cell parameters: a: 5.680(2) b: 5.680(2) c: 7.320(3) alpha: 90 beta: 90 gamma: 120 volume: 204.53(6) crystal system: hexagonal
x	intensity
5	0
5.22	0
5.44	0
5.66	0
5.88	0
6.1	0
6.32	0
6.54	0
6.76	0
6.98	0
7.2	0
7.42	0
7.64	0
7.86	0
8.08	0
8.3	0
8.52	0
8.74	0
8.96	0
9.18	0
9.4	0
9.62	0
9.84	0
10.06	0
10.28	0
10.5	0
10.72	0
10.94	0
11.16	0
11.38	0
11.6	0
11.82	0
12.04	0.215
12.26	0
12.48	0
12.7	0
12.92	0
13.14	0
13.36	0
13.58	0
13.8	0
14.02	0
14.24	0
14.46	0
14.68	0
14.9	0
15.12	0
15.34	0
15.56	0
15.78	0
16	0
16.22	0
16.44	0
16.66	0
16.88	0
17.1	0
17.32	0
17.54	0
17.76	0
17.98	3.757
18.2	0
18.42	0
18.64	0
18.86	0
19.08	0
19.3	0
19.52	0
19.74	0
19.96	0
20.18	0
20.4	0
20.62	0
20.84	0
21.06	0
21.28	0
21.5	0
21.72	13.819
21.94	0
22.16	0
22.38	0
22.6	0
22.82	0
23.04	0
23.26	0
23.48	0
23.7	0
23.92	0
24.14	0
24.36	10.476
24.58	0
24.8	0
25.02	0
25.24	0
25.46	0
25.68	0
25.9	0
26.12	0
26.34	0
26.56	0
26.78	0
27	0
27.22	0
27.44	0
27.66	0
27.88	0
28.1	0
28.32	0
28.54	0
28.76	0
28.98	0
29.2	0
29.42	0
29.64	0
29.86	0
30.08	0
30.3	0.049
30.52	22.546
30.74	0
30.96	0
31.18	0
31.4	5.429
31.62	4.89
31.84	0
32.06	0
32.28	0
32.5	0
32.72	0
32.94	0
33.16	0
33.38	0
33.6	0
33.82	3.142
34.04	0
34.26	0
34.48	0
34.7	0
34.92	0
35.14	0
35.36	0
35.58	0
35.8	0
36.02	0
36.24	0
36.46	2.569
36.68	0.102
36.9	6.961
37.12	0
37.34	0
37.56	0
37.78	0
38	0
38.22	0
38.44	0
38.66	5.438
38.88	0
39.1	0
39.32	0
39.54	0
39.76	0
39.98	0
40.2	0.009
40.42	0
40.64	0
40.86	0
41.08	0
41.3	2.503
41.52	0
41.74	0
41.96	0
42.18	0
42.4	0
42.62	0
42.84	0
43.06	0
43.28	0
43.5	0
43.72	0
43.94	0
44.16	0
44.38	21.088
44.6	0.001
44.82	0
45.04	0
45.26	0
45.48	0
45.7	0
45.92	0
46.14	0
46.36	0
46.58	0
46.8	0
47.02	0
47.24	0
47.46	0
47.68	0
47.9	0
48.12	0
48.34	0
48.56	0
48.78	0
49	0.161
49.22	3.475
49.44	0.006
49.66	0.003
49.88	0.981
50.1	0
50.32	0
50.54	0.005
50.76	0.027
50.98	0
51.2	0
51.42	0
51.64	0
51.86	0
52.08	0
52.3	0
52.52	0
52.74	0.342
52.96	1.238
53.18	0
53.4	0.914
53.62	0.008
53.84	0
54.06	0
54.28	0
54.5	0
54.72	0
54.94	0
55.16	0
55.38	10.525
55.6	0.873
55.82	0
56.04	10.161
56.26	0.892
56.48	0
56.7	0
56.92	0
57.14	0
57.36	0
57.58	1.319
57.8	0.047
58.02	0
58.24	0
58.46	0
58.68	0
58.9	0
59.12	0
59.34	0
59.56	0
59.78	0
60	0.115
60.22	1.428
60.44	0
60.66	0
60.88	0
61.1	0
61.32	0
61.54	0
61.76	0
61.98	0.308
62.2	0.039
62.42	0
62.64	0
62.86	0.063
63.08	0.001
63.3	5.613
63.52	1.401
63.74	0.035
63.96	0
64.18	0
64.4	0
64.62	0
64.84	0
65.06	0
65.28	0
65.5	0
65.72	10.589
65.94	2.23
66.16	0
66.38	0
66.6	2.801
66.82	0.835
67.04	0
67.26	0
67.48	0
67.7	0
67.92	0
68.14	0
68.36	0
68.58	0
68.8	0.123
69.02	0.162
69.24	0.015
69.46	0
69.68	0
69.9	0
70.12	0.182
70.34	0.066
70.56	0
70.78	0
71	0
71.22	0.395
71.44	0.095
71.66	0
71.88	0
72.1	0
72.32	0.177
72.54	0.194
72.76	0.019
72.98	0
73.2	0
73.42	0
73.64	0
73.86	0
74.08	4.249
74.3	2.317
74.52	0
74.74	0
74.96	0
75.18	0
75.4	0.027
75.62	0.069
75.84	0.029
76.06	0
76.28	0
76.5	0
76.72	0
76.94	0
77.16	0
77.38	0
77.6	0.098
77.82	0.579
78.04	0.391
78.26	1.325
78.48	0.856
78.7	0
78.92	0.077
79.14	0.062
79.36	0
79.58	0
79.8	0
80.02	0
80.24	0
80.46	0
80.68	0.099
80.9	0.109
81.12	0.467
81.34	0.104
81.56	0
81.78	0
82	0
82.22	0
82.44	0
82.66	0.838
82.88	0.098
83.1	0.006
83.32	0
83.54	0
83.76	0
83.98	0.068
84.2	0.042
84.42	0.181
84.64	0
84.86	0
85.08	0
85.3	0
85.52	0
85.74	0
85.96	0.001
86.18	0.009
86.4	0.029
86.62	0.076
86.84	0.311
87.06	0.406
87.28	0.032
87.5	0.001
87.72	0.011
87.94	0
88.16	0
88.38	0
88.6	0
88.82	0
89.04	0.057
89.26	0.002
89.48	0.297
89.7	0.429
89.92	0.945
