Measurement: Powder, Xray Data XY Processed
Mineral: Arfvedsonite
Rruff sample: R040127
Ideal chemistry: NaNa_2_(Fe^2+^_4_Fe^3+^)Si_8_O_22_(OH)_2_
Locality: Mont Saint-Hilaire, Rouville County, Quebec, Canada
Source: Bob Downs
Description: Black prismatic crystal associated with white analcime, R040128
Diffraction sample description: Powder
Measured chemistry: (Na_0.61_K_0.39_)Na_2.00_(Fe^2+^_2.40_Mg_0.80_Mn_0.75_Ca_0.05_)_=4_(Fe^3+^_0.60_Al_0.25_Mn_0.15_)(Si_0.99_Ti_0.01_)_8_O_22_((OH)_0.67_F_0.33_)_2_
Cell parameters: a: 9.891(1) b: 18.035(3) c: 5.3173(8) alpha: 90. beta: 103.732(8) gamma: 90. volume: 921.4(1) crystal system: monoclinic
x	intensity
5	0
5.22	19.0103
5.44	34.3755
5.66	21.0659
5.88	10.4915
6.1	15.4113
6.32	19.8201
6.54	6.32208
6.76	26.4353
6.98	13.3881
7.2	30.1133
7.42	21.5157
7.64	32.6213
7.86	4.02746
8.08	16.828
8.3	0.550926
8.52	9.59132
8.74	13.2418
8.96	10.9372
9.18	24.336
9.4	51.0421
9.62	10.5216
9.84	5.69702
10.06	39.7796
10.28	80.6196
10.5	923.398
10.72	24.9495
10.94	18.6642
11.16	28.3316
11.38	12.955
11.6	3.25797
11.82	9.38314
12.04	23.0814
12.26	12.2099
12.48	51.4703
12.7	33.5301
12.92	4.87164
13.14	5.24072
13.36	7.24557
13.58	32.1888
13.8	16.4038
14.02	37.9738
14.24	13.239
14.46	54.1947
14.68	29.307
14.9	35.4291
15.12	7.03036
15.34	19.9863
15.56	36.7678
15.78	24.2419
16	2.64215
16.22	19.3765
16.44	21.492
16.66	2.75919
16.88	8.25878
17.1	7.74458
17.32	24.4765
17.54	11.0337
17.76	25.1405
17.98	13.0367
18.2	0.685585
18.42	44.2584
18.64	21.2954
18.86	60.3476
19.08	24.0013
19.3	20.8696
19.52	6.86117
19.74	91.2762
19.96	3.78194
20.18	19.7387
20.4	12.4651
20.62	34.1615
20.84	7.63563
21.06	6.73521
21.28	16.8724
21.5	31.5935
21.72	12.2106
21.94	29.3815
22.16	27.8745
22.38	26.7439
22.6	35.6373
22.82	12.3782
23.04	1.22169
23.26	17.5228
23.48	20.4279
23.7	31.2918
23.92	2.91759
24.14	35.9243
24.36	18.3691
24.58	23.8056
24.8	22.3546
25.02	8.43332
25.24	19.0829
25.46	37.0725
25.68	7.39844
25.9	38.5424
26.12	66.9846
26.34	51.6217
26.56	0.673759
26.78	26.8713
27	4.60114
27.22	105.644
27.44	12.853
27.66	20.2151
27.88	23.4461
28.1	26.9095
28.32	796.939
28.54	46.814
28.76	19.8907
28.98	10.4725
29.2	8.93002
29.42	5.27805
29.64	13.6559
29.86	9.11467
30.08	18.6791
30.3	17.2494
30.52	9.67125
30.74	15.4601
30.96	35.9423
31.18	18.5934
31.4	24.3352
31.62	112.066
31.84	32.7278
32.06	18.816
32.28	27.3162
32.5	0.735847
32.72	30.8465
32.94	115.683
33.16	43.3829
33.38	29.4338
33.6	21.8313
33.82	5.2186
34.04	1.17897
34.26	10.2428
34.48	59.5349
34.7	40.0218
34.92	5.2558
35.14	3.06422
35.36	50.7763
35.58	25.1516
35.8	19.0536
36.02	33.8928
36.24	9.74552
36.46	28.4045
36.68	6.84494
36.9	18.6871
37.12	0.618477
37.34	31.5978
37.56	35.252
37.78	5.64781
38	22.0482
38.22	17.3834
38.44	27.2763
38.66	36.6653
38.88	20.7422
39.1	13.4806
39.32	35.8324
39.54	27.7853
39.76	6.74857
39.98	30.8709
40.2	16.923
40.42	15.83
40.64	21.8459
40.86	21.8975
41.08	14.9428
41.3	48.5429
41.52	56.6883
41.74	19.4519
41.96	9.09386
42.18	53.7408
42.4	26.9656
42.62	18.4535
42.84	23.5471
43.06	19.4382
43.28	14.7237
43.5	21.7908
43.72	24.266
43.94	36.3433
44.16	9.37622
44.38	69.3772
44.6	68.8434
44.82	19.7744
45.04	27.1666
45.26	18.0949
45.48	12.1029
45.7	1.62187
45.92	0.945236
46.14	3.65314
46.36	36.5498
46.58	30.1547
46.8	21.549
47.02	17.5302
47.24	3.25783
47.46	32.743
47.68	35.9419
47.9	28.5507
48.12	7.6352
48.34	14.1311
48.56	45.0434
48.78	29.1769
49	21.138
49.22	29.583
49.44	16.1197
49.66	11.9732
49.88	30.5899
50.1	25.8672
50.32	17.4437
50.54	38.8451
50.76	20.1197
50.98	3.20521
51.2	25.5533
51.42	5.44218
51.64	8.30384
51.86	3.21732
52.08	12.8496
52.3	17.4704
52.52	14.1554
52.74	12.9172
52.96	16.6122
53.18	23.9875
53.4	34.7292
53.62	23.5764
53.84	10.6792
54.06	24.1847
54.28	11.4232
54.5	27.0215
54.72	24.5204
54.94	34.6482
55.16	41.7743
55.38	4.29232
55.6	15.5604
55.82	21.0082
56.04	33.785
56.26	42.4881
56.48	11.5757
56.7	8.06653
56.92	33.1816
57.14	19.3262
57.36	47.6177
57.58	19.781
57.8	34.154
58.02	21.9359
58.24	58.411
58.46	14.4994
58.68	11.6531
58.9	5.28227
59.12	9.50561
59.34	17.0695
59.56	2.47754
59.78	13.9032
60	17.0632
60.22	19.7934
60.44	2.38491
60.66	2.15345
60.88	29.5735
61.1	34.937
61.32	19.4854
61.54	11.8338
61.76	28.6069
61.98	9.79032
62.2	15.2254
62.42	24.5766
62.64	1.90639
62.86	12.9912
63.08	14.6052
63.3	18.8705
63.52	13.3625
63.74	38.4216
63.96	32.2412
64.18	19.4824
64.4	1.79795
64.62	57.5624
64.84	29.4038
65.06	28.5913
65.28	38.1288
65.5	27.6844
65.72	25.0041
65.94	27.2639
66.16	42.0205
66.38	25.1194
66.6	3.93224
66.82	39.3591
67.04	16.2402
67.26	13.804
67.48	41.1869
67.7	45.6651
67.92	9.26708
68.14	7.64684
68.36	2.22543
68.58	36.2876
68.8	15.3435
69.02	13.536
69.24	13.5857
69.46	23.2505
69.68	36.4895
69.9	13.7858
70.12	0.800148
70.34	32.5418
70.56	16.961
70.78	20.2746
71	37.639
71.22	7.2029
71.44	21.0299
71.66	21.4104
71.88	34.6213
72.1	9.62859
72.32	18.4952
72.54	12.7807
72.76	8.26862
72.98	19.5469
73.2	1.13631
73.42	46.0798
73.64	20.5533
73.86	1.90265
74.08	23.0438
74.3	38.9958
74.52	23.5759
74.74	1.34251
74.96	22.4794
75.18	27.4194
75.4	12.7621
75.62	12.291
75.84	19.5867
76.06	22.6407
76.28	24.0891
76.5	29.1149
76.72	26.7705
76.94	30.5741
77.16	29.8072
77.38	20.9078
77.6	30.7475
77.82	28.2688
78.04	5.88389
78.26	20.905
78.48	17.3692
78.7	3.05811
78.92	0.392242
79.14	12.8616
79.36	3.1865
79.58	1.21904
79.8	17.9365
80.02	44.4652
80.24	30.8721
80.46	30.0973
80.68	19.2142
80.9	3.78577
81.12	31.5375
81.34	34.4841
81.56	29.864
81.78	24.8483
82	3.88126
82.22	9.97177
82.44	30.8884
82.66	29.1608
82.88	12.1569
83.1	3.29769
83.32	1.32326
83.54	38.8816
83.76	17.7561
83.98	16.1933
84.2	22.3937
84.42	10.2242
84.64	22.3321
84.86	17.0604
85.08	14.9357
85.3	32.555
85.52	6.93169
85.74	13.3926
85.96	41.0623
86.18	35.5527
86.4	33.0985
86.62	37.0711
86.84	25.9541
87.06	23.8309
87.28	37.1363
87.5	20.3326
87.72	36.831
87.94	10.6643
88.16	21.538
88.38	20.4406
88.6	2.82588
88.82	21.7842
89.04	31.0437
89.26	18.9476
89.48	9.74537
89.7	19.9591
89.92	8.33527
