Measurement: Powder, Xray Data XY Processed
Mineral: Argentojarosite
Rruff sample: R060097
Ideal chemistry: Ag^1+^Fe^3+^_3_(S^6+^O_4_)_2_(OH)_6_
Locality: unknown
Source: University of Arizona Mineral Museum
Description: Yellowish-brown flat hexagonal plates
Diffraction sample description: Powder
Measured chemistry: Ag_1.00_Fe^3+^_3.00_(S_1.00_O_4_)_2_(OH)_6_
Cell parameters: a: 7.3360(2) b: 7.3360(2) c: 16.5362(6) alpha: 90. beta: 90. gamma: 120. volume: 770.71(4) crystal system: hexagonal
x	intensity
5	0
5.22	17.86
5.44	15.047
5.66	14.662
5.88	23.761
6.1	24.414
6.32	22.421
6.54	19.983
6.76	20.347
6.98	31.868
7.2	4.089
7.42	28.271
7.64	16.514
7.86	1.22
8.08	22.412
8.3	6.872
8.52	9.099
8.74	13.151
8.96	22.012
9.18	16.233
9.4	14.817
9.62	15.972
9.84	10.716
10.06	1.574
10.28	9.389
10.5	9.809
10.72	21.965
10.94	9.194
11.16	7.433
11.38	19.629
11.6	2.663
11.82	17.337
12.04	12.206
12.26	2.084
12.48	4.179
12.7	19.547
12.92	14.278
13.14	2.994
13.36	32.114
13.58	11.888
13.8	20.268
14.02	4.819
14.24	9.551
14.46	6.183
14.68	16.006
14.9	80.053
15.12	12.969
15.34	8.882
15.56	14.087
15.78	2.651
16	11.645
16.22	10.803
16.44	20.963
16.66	12.028
16.88	14.419
17.1	1.898
17.32	27.256
17.54	20.314
17.76	13.504
17.98	14.794
18.2	28.122
18.42	12.175
18.64	13.636
18.86	2.57
19.08	7.774
19.3	19.473
19.52	7.532
19.74	11.987
19.96	16.931
20.18	16.959
20.4	22.793
20.62	11.184
20.84	22.642
21.06	19.104
21.28	14.329
21.5	6.415
21.72	23.634
21.94	22.106
22.16	26.084
22.38	24.074
22.6	14.872
22.82	2.577
23.04	2.404
23.26	5.5
23.48	14.299
23.7	19.317
23.92	7.145
24.14	18.278
24.36	36.619
24.58	1.271
24.8	11.121
25.02	17.213
25.24	17.197
25.46	11.997
25.68	18.051
25.9	21.749
26.12	12.739
26.34	31.342
26.56	8.716
26.78	11.336
27	5.724
27.22	20.243
27.44	6.711
27.66	20.15
27.88	17.539
28.1	7.833
28.32	16.267
28.54	4.98
28.76	13.866
28.98	19.402
29.2	101.886
29.42	43.615
29.64	18.573
29.86	1.779
30.08	13.508
30.3	16.958
30.52	8.249
30.74	8.035
30.96	11.705
31.18	18.899
31.4	17.187
31.62	1.271
31.84	1.686
32.06	13.856
32.28	25.707
32.5	190.688
32.72	14.911
32.94	15.274
33.16	7.09
33.38	5.996
33.6	18.368
33.82	5.625
34.04	9.847
34.26	15.151
34.48	4.834
34.7	21.063
34.92	7.309
35.14	20.108
35.36	14.262
35.58	26.196
35.8	28.331
36.02	20.07
36.24	13.23
36.46	1.168
36.68	23.544
36.9	4.479
37.12	17.111
37.34	18.386
37.56	6.204
37.78	37.484
38	7.261
38.22	12.486
38.44	16.079
38.66	11.233
38.88	6.33
39.1	22.411
39.32	20.935
39.54	6.774
39.76	4.038
39.98	10.835
40.2	0.524
40.42	13.846
40.64	2.001
40.86	158.207
41.08	22.489
41.3	16.515
41.52	28.659
41.74	13.233
41.96	10.039
42.18	14.639
42.4	2.008
42.62	12.931
42.84	4.219
43.06	6.8
43.28	7.751
43.5	3.288
43.72	29.024
43.94	15.63
44.16	18.34
44.38	8.95
44.6	21.434
44.82	32.876
45.04	20.465
45.26	0.578
45.48	4.092
45.7	9.192
45.92	85.348
46.14	20.379
46.36	5.562
46.58	24.581
46.8	8.205
47.02	12.02
47.24	0.273
47.46	8.019
47.68	4.589
47.9	9.517
48.12	0.06
48.34	13.303
48.56	8.045
48.78	18.137
49	9.646
49.22	11.824
49.44	16.507
49.66	54.235
49.88	25.73
50.1	24.73
50.32	5.213
50.54	12.496
50.76	21.025
50.98	5.424
51.2	6.709
51.42	17.543
51.64	17.712
51.86	8.383
52.08	7.592
52.3	11.453
52.52	15.122
52.74	6.666
52.96	46.07
53.18	19.06
53.4	4.628
53.62	5.37
53.84	9.217
54.06	20
54.28	23.204
54.5	32.432
54.72	17.262
54.94	14.084
55.16	28.074
55.38	30.206
55.6	16.629
55.82	29.543
56.04	2.267
56.26	12.081
56.48	1.289
56.7	12.382
56.92	12.343
57.14	26.374
57.36	17.527
57.58	11.206
57.8	25.071
58.02	4.597
58.24	4.329
58.46	4.281
58.68	12.301
58.9	28.463
59.12	20.422
59.34	28.392
59.56	32.366
59.78	14.322
60	3.228
60.22	14.014
60.44	0.936
60.66	41.123
60.88	16.862
61.1	4.679
61.32	22.797
61.54	29.747
61.76	14.733
61.98	9.476
62.2	23.107
62.42	15.231
62.64	44.989
62.86	8.518
63.08	17.872
63.3	29.244
63.52	38.145
63.74	10.09
63.96	12.17
64.18	2.582
64.4	1.035
64.62	19.526
64.84	19.14
65.06	19.511
65.28	18.826
65.5	11.086
65.72	29.238
65.94	30.565
66.16	25.5
66.38	11.741
66.6	9.167
66.82	2.022
67.04	3.697
67.26	10.68
67.48	38.41
67.7	17.942
67.92	10.217
68.14	12.152
68.36	34.515
68.58	15.227
68.8	15.673
69.02	1.731
69.24	1.729
69.46	13.965
69.68	10.865
69.9	21.85
70.12	18.41
70.34	12.356
70.56	18.75
70.78	25.512
71	16.001
71.22	1.09
71.44	11.262
71.66	10.304
71.88	16.851
72.1	12.357
72.32	18.474
72.54	4.599
72.76	14.214
72.98	14.298
73.2	3.746
73.42	23.474
73.64	13.431
73.86	4.161
74.08	21.99
74.3	16.571
74.52	8.539
74.74	6.21
74.96	2.793
75.18	8.982
75.4	4.936
75.62	7.028
75.84	20.391
76.06	1.663
76.28	6.614
76.5	19.539
76.72	32.624
76.94	13.121
77.16	17.281
77.38	23.524
77.6	13.678
77.82	8.417
78.04	7.734
78.26	11.234
78.48	26.008
78.7	23.237
78.92	21.579
79.14	2.065
79.36	18.112
79.58	14.23
79.8	17.599
80.02	15.504
80.24	16.409
80.46	32.759
80.68	22.429
80.9	18.995
81.12	17.12
81.34	33.71
81.56	9.803
81.78	22.132
82	17.127
82.22	7.362
82.44	9.377
82.66	32.311
82.88	10.815
83.1	3.151
83.32	14.655
83.54	5.268
83.76	6.213
83.98	15.849
84.2	11.876
84.42	34.234
84.64	11.888
84.86	12.824
85.08	25.777
85.3	2.652
85.52	18.141
85.74	2.816
85.96	13.544
86.18	1.832
86.4	24.304
86.62	8.573
86.84	33.479
87.06	8.671
87.28	17.35
87.5	10.786
87.72	19.31
87.94	15.469
88.16	15.597
88.38	5.349
88.6	29.392
88.82	23.773
89.04	5.306
89.26	7.971
89.48	23.887
89.7	35.877
89.92	16.687
