Measurement: Powder, Xray Data XY Processed
Mineral: Arrojadite-(KFe)
Rruff sample: R070319
Ideal chemistry: (KNa)Fe^2+^(CaNa_2_)Fe^2+^_13_Al(PO_4_)_11_(PO_3_OH)(OH)_2_
Locality: Nickel Plate mine, Keystone District, Pennington County, South Dakota, USA
Source: James Shigley
Description: Green massive
Diffraction sample description: Powder, cell parameters are from single crystal
Measured chemistry: (K_0.67_Na_1.33_)_Σ=2_Fe^2+^_1.00_(Ca_0.80_Na_2.20_)_Σ=3_(Fe^2+^_7.53_Mn_4.65_Mg_0.64_Al_0.16_Ti_0.02_)_Σ=13_Al_1.00_(P_1.00_O_4_)_11_(P_1.00_O_3_OH)(OH)_2_; OH estimated by charge balance
Cell parameters: a: 24.709(2) b: 10.039(1) c: 16.519(2) alpha: 90 beta: 105.680(5) gamma: 90 volume: 3945(1) crystal system: monoclinic
x	intensity
5	0
5.22	27.0771
5.44	15.5962
5.66	2.30086
5.88	14.7767
6.1	24.697
6.32	30.9189
6.54	15.4665
6.76	36.4717
6.98	23.9632
7.2	28.2335
7.42	28.4686
7.64	23.8282
7.86	19.3996
8.08	3.2889
8.3	27.7856
8.52	12.4466
8.74	24.7965
8.96	19.3074
9.18	37.3116
9.4	15.196
9.62	38.9105
9.84	10.8775
10.06	36.095
10.28	21.357
10.5	3.84212
10.72	16.717
10.94	1.85193
11.16	25.2268
11.38	20.9893
11.6	43.2222
11.82	29.8632
12.04	19.3135
12.26	14.3188
12.48	31.261
12.7	8.53607
12.92	10.2864
13.14	34.9205
13.36	54.7958
13.58	22.4466
13.8	13.3279
14.02	28.171
14.24	29.4176
14.46	6.10232
14.68	9.01809
14.9	65.7172
15.12	19.522
15.34	0.995644
15.56	20.4837
15.78	10.7901
16	56.523
16.22	9.1238
16.44	27.6722
16.66	11.3411
16.88	24.196
17.1	20.1886
17.32	40.7714
17.54	6.62239
17.76	24.3864
17.98	10.0205
18.2	15.4262
18.42	26.6669
18.64	39.3119
18.86	17.3821
19.08	31.4849
19.3	30.3152
19.52	18.247
19.74	18.573
19.96	11.6836
20.18	24.5032
20.4	18.7204
20.62	23.9133
20.84	15.5053
21.06	35.4035
21.28	15.7842
21.5	18.715
21.72	28.5235
21.94	37.0332
22.16	21.0331
22.38	25.1364
22.6	12.4346
22.82	32.3559
23.04	38.1894
23.26	11.7632
23.48	30.38
23.7	11.6524
23.92	27.3131
24.14	23.1593
24.36	11.1146
24.58	10.5942
24.8	1.35442
25.02	0.023697
25.24	6.29034
25.46	22.8377
25.68	18.3126
25.9	19.6869
26.12	96.0939
26.34	5.40172
26.56	4.99565
26.78	25.3614
27	10.6882
27.22	38.4425
27.44	4.74587
27.66	49.729
27.88	45.4554
28.1	18.9096
28.32	16.7932
28.54	20.7736
28.76	12.0758
28.98	6.27458
29.2	16.6557
29.42	237.293
29.64	4.3974
29.86	1.24883
30.08	12.353
30.3	2.69005
30.52	23.9975
30.74	14.2972
30.96	3.21336
31.18	5.51753
31.4	58.6072
31.62	30.0297
31.84	16.7545
32.06	14.6681
32.28	49.9556
32.5	9.17012
32.72	2.04405
32.94	1.37941
33.16	61.5882
33.38	54.3733
33.6	32.9463
33.82	14.1685
34.04	9.50929
34.26	12.74
34.48	35.9504
34.7	6.39224
34.92	22.7262
35.14	66.6221
35.36	31.5949
35.58	16.1537
35.8	46.1738
36.02	30.3783
36.24	41.7887
36.46	18.0236
36.68	0.012833
36.9	13.5516
37.12	37.1654
37.34	29.1869
37.56	34.0953
37.78	24.2606
38	22.2958
38.22	30.6417
38.44	12.9383
38.66	34.7573
38.88	11.325
39.1	5.55273
39.32	19.4221
39.54	18.8817
39.76	28.299
39.98	43.5361
40.2	24.3122
40.42	6.55215
40.64	0.015594
40.86	31.1846
41.08	21.5704
41.3	12.7764
41.52	37.8048
41.74	10.8628
41.96	20.6156
42.18	5.299
42.4	21.0168
42.62	6.43486
42.84	35.0319
43.06	24.9376
43.28	17.1385
43.5	11.4053
43.72	30.7232
43.94	8.41484
44.16	30.3382
44.38	0.163055
44.6	12.2327
44.82	6.34891
45.04	3.15802
45.26	2.65886
45.48	27.5417
45.7	35.1307
45.92	6.448
46.14	10.5648
46.36	17.8005
46.58	4.75226
46.8	8.69321
47.02	7.29213
47.24	36.5729
47.46	21.5588
47.68	37.4571
47.9	7.80466
48.12	1.6053
48.34	20.666
48.56	6.62151
48.78	19.3234
49	24.2391
49.22	32.1343
49.44	34.8394
49.66	21.2425
49.88	15.438
50.1	11.5083
50.32	9.77469
50.54	11.4233
50.76	37.6967
50.98	36.1648
51.2	15.6758
51.42	5.6205
51.64	9.095
51.86	52.8849
52.08	49.1258
52.3	42.0231
52.52	27.2765
52.74	2.49143
52.96	36.4529
53.18	5.54231
53.4	27.9137
53.62	27.6183
53.84	35.6125
54.06	17.6764
54.28	24.4125
54.5	26.9823
54.72	28.6455
54.94	21.4244
55.16	20.855
55.38	35.4635
55.6	26.1373
55.82	16.8694
56.04	44.5568
56.26	2.69072
56.48	25.8949
56.7	23.3557
56.92	9.20778
57.14	4.85878
57.36	20.6724
57.58	11.3095
57.8	30.9139
58.02	17.3056
58.24	17.2353
58.46	19.077
58.68	30.7219
58.9	24.0482
59.12	22.7112
59.34	11.9035
59.56	11.7886
59.78	26.5791
60	15.1886
60.22	28.8416
60.44	12.8986
60.66	19.5903
60.88	4.77782
61.1	18.3508
61.32	12.4595
61.54	33.6037
61.76	23.0181
61.98	19.4951
62.2	35.7111
62.42	35.7926
62.64	32.6206
62.86	22.882
63.08	23.6578
63.3	29.8912
63.52	18.9086
63.74	28.613
63.96	9.20326
64.18	14.4506
64.4	19.6396
64.62	10.2673
64.84	17.1413
65.06	2.42378
65.28	6.95853
65.5	18.5431
65.72	39.895
65.94	41.408
66.16	28.5704
66.38	25.3725
66.6	20.6164
66.82	19.7084
67.04	4.57138
67.26	29.5051
67.48	47.5525
67.7	17.6406
67.92	18.0029
68.14	36.0017
68.36	29.4845
68.58	9.4957
68.8	4.21916
69.02	29.4691
69.24	17.1068
69.46	28.6365
69.68	6.77927
69.9	36.3153
70.12	1.06555
70.34	6.66164
70.56	17.5584
70.78	36.4087
71	40.5427
71.22	23.294
71.44	25.6667
71.66	17.2041
71.88	34.4502
72.1	24.9868
72.32	10.2176
72.54	15.9191
72.76	17.4866
72.98	35.5495
73.2	25.3998
73.42	35.4382
73.64	12.3852
73.86	18.7413
74.08	15.0922
74.3	19.9349
74.52	1.79576
74.74	17.6502
74.96	30.5167
75.18	20.776
75.4	18.051
75.62	18.8633
75.84	7.41501
76.06	33.3843
76.28	28.2645
76.5	13.6168
76.72	0.410812
76.94	17.0592
77.16	22.8479
77.38	19.8395
77.6	8.62453
77.82	27.9503
78.04	19.1844
78.26	1.95497
78.48	10.8544
78.7	5.43222
78.92	20.0378
79.14	1.46149
79.36	12.876
79.58	22.5968
79.8	5.504
80.02	34.6019
80.24	24.5975
80.46	28.8463
80.68	26.3842
80.9	14.8269
81.12	5.01759
81.34	30.573
81.56	5.63913
81.78	22.6447
82	26.9728
82.22	28.7473
82.44	24.5193
82.66	10.867
82.88	15.152
83.1	6.21085
83.32	12.1814
83.54	21.523
83.76	10.9521
83.98	24.9902
84.2	17.926
84.42	5.87089
84.64	19.379
84.86	14.5987
85.08	22.3728
85.3	28.8709
85.52	2.53416
85.74	14.5456
85.96	8.51924
86.18	27.2893
86.4	28.9474
86.62	15.7192
86.84	43.4658
87.06	23.4346
87.28	8.46721
87.5	41.9211
87.72	21.4642
87.94	32.1178
88.16	20.5562
88.38	41.7954
88.6	42.7045
88.82	0.462631
89.04	27.2826
89.26	28.7821
89.48	11.7948
89.7	24.2611
89.92	22.2724
