Measurement: Powder, Xray Data XY Processed
Mineral: Arrojadite-(KNa)
Rruff sample: R050107
Ideal chemistry: KNa_3_(CaNa_2_)Fe^2+^_13_Al(PO_4_)_11_(PO_3_OH)(OH)_2_
Locality: Big-Fish River, Yukon Territory, Canada
Source: Rock Currier
Description: Yellowish green tabular crystals
Diffraction sample description: Powder
Cell parameters: a: 24.672(2) b: 10.0692(8) c: 16.573(1) alpha: 90. beta: 106.534(5) gamma: 90. volume: 3947.2(3) crystal system: monoclinic
x	intensity
5	0
5.22	25.382
5.44	17.21
5.66	11.891
5.88	27.858
6.1	19.893
6.32	8.355
6.54	13.702
6.76	17.488
6.98	12.04
7.2	15.698
7.42	18.448
7.64	8.475
7.86	16.035
8.08	13.481
8.3	22.883
8.52	14.166
8.74	21.418
8.96	11.433
9.18	2.164
9.4	31.337
9.62	18.415
9.84	9.395
10.06	18.406
10.28	0.417
10.5	24.024
10.72	19.377
10.94	11.602
11.16	11.399
11.38	19.705
11.6	15.348
11.82	8.696
12.04	4.47
12.26	15.442
12.48	17.574
12.7	14.691
12.92	10.963
13.14	3.677
13.36	11.004
13.58	6.009
13.8	17.365
14.02	15.638
14.24	19.41
14.46	13.31
14.68	20.204
14.9	1.023
15.12	138.338
15.34	3.662
15.56	3.994
15.78	14.572
16	26.219
16.22	19.915
16.44	20.203
16.66	28.711
16.88	24.648
17.1	7.61
17.32	22.785
17.54	9.977
17.76	14.956
17.98	16.623
18.2	29.665
18.42	24.183
18.64	25.846
18.86	16.406
19.08	13.198
19.3	27.123
19.52	37.034
19.74	11.883
19.96	1.123
20.18	9.746
20.4	49.269
20.62	22.84
20.84	3.642
21.06	37.103
21.28	12.001
21.5	20.792
21.72	19.907
21.94	6.769
22.16	31.914
22.38	20.11
22.6	17.327
22.82	1.847
23.04	19.389
23.26	9.17
23.48	20.796
23.7	37.35
23.92	17.398
24.14	33.862
24.36	14.218
24.58	15.972
24.8	14.864
25.02	0.992
25.24	22.37
25.46	18.645
25.68	22.824
25.9	14.4
26.12	2.613
26.34	88.528
26.56	4.156
26.78	11.809
27	10.313
27.22	2.32
27.44	18.06
27.66	26.524
27.88	24.224
28.1	11.078
28.32	0.207
28.54	11.14
28.76	19.51
28.98	3.815
29.2	153.06
29.42	32.779
29.64	7.656
29.86	20.661
30.08	14.404
30.3	14.997
30.52	13.633
30.74	7.181
30.96	10.596
31.18	2.311
31.4	25.744
31.62	1.005
31.84	7.952
32.06	54.536
32.28	28.735
32.5	52.619
32.72	20.107
32.94	31.671
33.16	50.532
33.38	19.029
33.6	38.423
33.82	2.351
34.04	15.413
34.26	3.95
34.48	21.178
34.7	27.626
34.92	16.747
35.14	13.995
35.36	27.374
35.58	17.578
35.8	2.608
36.02	11.751
36.24	6.244
36.46	38.363
36.68	13.366
36.9	69.841
37.12	24.976
37.34	13.92
37.56	5.612
37.78	0.584
38	3.278
38.22	3.711
38.44	2.695
38.66	9.332
38.88	15.254
39.1	29.037
39.32	17.173
39.54	8.342
39.76	33.373
39.98	16.929
40.2	10.179
40.42	9.982
40.64	11.198
40.86	9.333
41.08	18.13
41.3	5.532
41.52	0.632
41.74	37.62
41.96	8.564
42.18	18.205
42.4	17.683
42.62	18.211
42.84	8.813
43.06	19.182
43.28	1.16
43.5	21.704
43.72	15.415
43.94	10.549
44.16	1.763
44.38	24.294
44.6	3.11
44.82	28.194
45.04	50.913
45.26	8.914
45.48	19.199
45.7	17.92
45.92	4.468
46.14	2.503
46.36	2.15
46.58	3.569
46.8	29.388
47.02	32.433
47.24	12.461
47.46	5.543
47.68	11.872
47.9	6.079
48.12	26.759
48.34	7.038
48.56	2.743
48.78	22.222
49	27.655
49.22	21.739
49.44	8.355
49.66	15.607
49.88	13.628
50.1	14.961
50.32	6.896
50.54	8.388
50.76	6.243
50.98	24.401
51.2	24.533
51.42	16.728
51.64	13.761
51.86	72.174
52.08	10.756
52.3	24.217
52.52	41.061
52.74	26.986
52.96	21.515
53.18	0.435
53.4	34.616
53.62	11.125
53.84	38.488
54.06	18.839
54.28	31.788
54.5	15.829
54.72	12.457
54.94	7.216
55.16	17.12
55.38	39.831
55.6	0.519
55.82	0.504
56.04	32.519
56.26	7.338
56.48	2.441
56.7	0.025
56.92	1.357
57.14	1.527
57.36	19.745
57.58	13.111
57.8	20.974
58.02	11.744
58.24	13.401
58.46	10.868
58.68	24.278
58.9	12.298
59.12	13.671
59.34	28.431
59.56	15.774
59.78	0.262
60	16.666
60.22	17.057
60.44	7.361
60.66	13.803
60.88	5.412
61.1	12.399
61.32	7.808
61.54	0.58
61.76	23.886
61.98	2.65
62.2	2.189
62.42	24.623
62.64	42.212
62.86	8.837
63.08	15.295
63.3	15.817
63.52	17.97
63.74	27.178
63.96	32.699
64.18	21.766
64.4	11.841
64.62	23.137
64.84	27.742
65.06	21.53
65.28	11.072
65.5	10.81
65.72	1.128
65.94	16.802
66.16	12.103
66.38	15.032
66.6	11.364
66.82	13.717
67.04	27.675
67.26	21.34
67.48	7.74
67.7	5.952
67.92	10.519
68.14	1.008
68.36	17.843
68.58	13.785
68.8	36.48
69.02	14.017
69.24	1.449
69.46	12.207
69.68	19.549
69.9	9.929
70.12	20.371
70.34	10.753
70.56	26.987
70.78	1.971
71	5.952
71.22	10.299
71.44	23.209
71.66	23.979
71.88	18.358
72.1	6.576
72.32	9.609
72.54	7.968
72.76	6.176
72.98	13.565
73.2	16.498
73.42	8.106
73.64	7.527
73.86	23.16
74.08	11.142
74.3	29.081
74.52	2.638
74.74	14.941
74.96	9.918
75.18	32.084
75.4	11.942
75.62	17.614
75.84	11.699
76.06	20.668
76.28	31.568
76.5	16.627
76.72	6.056
76.94	22.848
77.16	2.288
77.38	6.919
77.6	13.873
77.82	1.947
78.04	24.679
78.26	7.875
78.48	12.031
78.7	12.348
78.92	6.275
79.14	11.154
79.36	10.74
79.58	23.134
79.8	23.211
80.02	35.157
80.24	10.635
80.46	3.07
80.68	21.755
80.9	24.061
81.12	10.579
81.34	5.547
81.56	26.18
81.78	24.855
82	17.068
82.22	22.122
82.44	9.398
82.66	22.955
82.88	5.607
83.1	1.249
83.32	29.984
83.54	17.019
83.76	12.717
83.98	25.38
84.2	24.524
84.42	4.972
84.64	12.133
84.86	15.092
85.08	7.93
85.3	19.716
85.52	2.371
85.74	29.584
85.96	5.326
86.18	4.471
86.4	17.915
86.62	26.408
86.84	26.15
87.06	21.912
87.28	6.296
87.5	32.11
87.72	2.604
87.94	3.948
88.16	4.135
88.38	13.334
88.6	17.194
88.82	21.027
89.04	3.106
89.26	28.182
89.48	0.217
89.7	16.169
89.92	28.991
