Measurement: Powder, Xray Data XY Processed
Mineral: Arsenolite
Rruff sample: R050383
Ideal chemistry: As^3+^_2_O_3_
Locality: Eureka, Nevada, USA
Source: University of Arizona Mineral Museum
Description: Colorless hoppered octahedra
Diffraction sample description: Powder
Measured chemistry: As_2.00_O_3_
Cell parameters: a: 11.0749(3) b: 11.0749(3) c: 11.0749(3) alpha: 90. beta: 90. gamma: 90. volume: 1358.4(1) crystal system: cubic
x	intensity
5	0
5.22	13.1331
5.44	1.76561
5.66	7.05288
5.88	2.01924
6.1	4.66212
6.32	13.1588
6.54	17.4565
6.76	15.7052
6.98	9.86329
7.2	0.124723
7.42	12.463
7.64	2.68281
7.86	18.0568
8.08	0.796949
8.3	1.99824
8.52	4.09117
8.74	7.01059
8.96	1.95832
9.18	0.240419
9.4	11.4784
9.62	2.84627
9.84	12.5492
10.06	5.8946
10.28	10.8252
10.5	14.7785
10.72	12.8288
10.94	2.4807
11.16	15.2466
11.38	6.86417
11.6	15.473
11.82	4.70475
12.04	3.58625
12.26	16.2802
12.48	36.1163
12.7	5.1856
12.92	17.4256
13.14	3.45034
13.36	8.83778
13.58	36.6216
13.8	922.375
14.02	122.246
14.24	18.3348
14.46	15.1527
14.68	2.02665
14.9	3.62315
15.12	8.51861
15.34	1.77578
15.56	17.0775
15.78	6.84881
16	5.40214
16.22	13.5738
16.44	13.2095
16.66	7.77853
16.88	10.4087
17.1	0.461954
17.32	4.23836
17.54	4.44116
17.76	1.61748
17.98	7.75069
18.2	5.71948
18.42	11.5725
18.64	6.01487
18.86	9.11521
19.08	14.722
19.3	9.32288
19.52	18.5446
19.74	4.00238
19.96	1.30164
20.18	0.893311
20.4	9.69742
20.62	13.7296
20.84	9.75937
21.06	2.97761
21.28	3.93745
21.5	11.8636
21.72	1.83482
21.94	11.9435
22.16	5.05954
22.38	1.20731
22.6	2.59737
22.82	6.52039
23.04	11.3434
23.26	17.5133
23.48	8.65242
23.7	6.20138
23.92	14.1074
24.14	11.9224
24.36	13.0296
24.58	20.8083
24.8	4.60176
25.02	17.7407
25.24	21.9168
25.46	10.2686
25.68	1.27662
25.9	14.9041
26.12	4.13136
26.34	5.56478
26.56	16.1733
26.78	27.5186
27	18.8774
27.22	10.6026
27.44	27.6745
27.66	78.6977
27.88	1555.79
28.1	225.492
28.32	24.8082
28.54	17.4727
28.76	7.40178
28.98	2.98033
29.2	9.20701
29.42	10.4335
29.64	4.50351
29.86	14.2993
30.08	5.92683
30.3	9.47247
30.52	6.76809
30.74	12.9592
30.96	16.8326
31.18	7.70519
31.4	12.9547
31.62	5.4859
31.84	32.2326
32.06	19.2482
32.28	213.306
32.5	109.396
32.72	16.2152
32.94	11.6672
33.16	29.7461
33.38	8.19434
33.6	0.627148
33.82	5.33698
34.04	12.283
34.26	14.8945
34.48	4.29878
34.7	7.45907
34.92	14.0982
35.14	79.8835
35.36	428.961
35.58	70.7026
35.8	18.2205
36.02	12.496
36.24	0.362652
36.46	4.92921
36.68	7.92997
36.9	1.947
37.12	7.8453
37.34	5.64956
37.56	0.770363
37.78	10.8364
38	16.0656
38.22	7.97131
38.44	1.19713
38.66	4.84029
38.88	8.38175
39.1	3.75563
39.32	4.50185
39.54	13.4711
39.76	51.5562
39.98	89.9351
40.2	11.5382
40.42	5.2747
40.64	9.02826
40.86	7.77828
41.08	15.5263
41.3	7.2537
41.52	24.6029
41.74	9.37569
41.96	9.21309
42.18	31.7499
42.4	130.995
42.62	43.3154
42.84	0.546627
43.06	1.25599
43.28	11.1981
43.5	12.7522
43.72	3.16622
43.94	15.0475
44.16	5.44782
44.38	8.38729
44.6	4.46648
44.82	0.909502
45.04	11.1369
45.26	13.5769
45.48	12.0802
45.7	9.28671
45.92	17.0831
46.14	40.599
46.36	258.161
46.58	98.748
46.8	13.3
47.02	9.34821
47.24	1.50273
47.46	3.51324
47.68	10.5689
47.9	6.68281
48.12	3.75745
48.34	11.6342
48.56	30.7717
48.78	27.5638
49	21.7417
49.22	28.5901
49.44	39.166
49.66	6.35015
49.88	3.08465
50.1	12.5397
50.32	8.9229
50.54	6.34074
50.76	4.74446
50.98	11.1044
51.2	7.19213
51.42	0.535143
51.64	6.84677
51.86	5.94331
52.08	10.8434
52.3	9.60558
52.52	3.44537
52.74	7.72419
52.96	9.06818
53.18	8.62104
53.4	2.17221
53.62	6.48398
53.84	13.7104
54.06	4.17055
54.28	11.8296
54.5	9.35293
54.72	23.0505
54.94	107.366
55.16	84.9585
55.38	16.5411
55.6	18.1121
55.82	9.54558
56.04	6.45024
56.26	10.661
56.48	15.905
56.7	20.2071
56.92	16.3914
57.14	11.6515
57.36	1.77608
57.58	47.6312
57.8	58.8727
58.02	13.2408
58.24	6.85841
58.46	17.0283
58.68	13.8523
58.9	4.68816
59.12	24.551
59.34	29.1493
59.56	131.444
59.78	98
60	23.0942
60.22	11.6264
60.44	8.3044
60.66	0.611368
60.88	9.34992
61.1	8.80926
61.32	1.81462
61.54	6.47094
61.76	6.62019
61.98	5.00676
62.2	2.0042
62.42	7.64589
62.64	13.0774
62.86	16.047
63.08	5.76326
63.3	11.5159
63.52	2.70495
63.74	12.1443
63.96	18.0962
64.18	25.1406
64.4	12.1076
64.62	60.0856
64.84	33.9655
65.06	12.5969
65.28	8.66832
65.5	7.04593
65.72	8.90316
65.94	12.2133
66.16	7.54995
66.38	3.78308
66.6	8.95472
66.82	7.93844
67.04	8.25079
67.26	3.51323
67.48	2.1368
67.7	11.3815
67.92	11.25
68.14	11.5801
68.36	11.3906
68.58	2.85178
68.8	5.97619
69.02	9.82696
69.24	31.8463
69.46	61.531
69.68	39.0178
69.9	3.42478
70.12	4.77417
70.34	13.832
70.56	17.0153
70.78	4.16093
71	14.2936
71.22	5.29294
71.44	10.2737
71.66	9.06628
71.88	8.12556
72.1	0.337667
72.32	28.23
72.54	22.6284
72.76	10.2318
72.98	6.20785
73.2	1.85018
73.42	7.19162
73.64	3.3638
73.86	9.53863
74.08	27.2154
74.3	23.593
74.52	26.3193
74.74	18.4776
74.96	14.5924
75.18	13.1525
75.4	5.70705
75.62	4.9324
75.84	8.04701
76.06	2.09075
76.28	0.054426
76.5	3.25153
76.72	10.011
76.94	9.32938
77.16	6.26459
77.38	13.5076
77.6	6.85064
77.82	3.13526
78.04	4.25162
78.26	2.47298
78.48	10.2533
78.7	32.079
78.92	12.6703
79.14	29.9598
79.36	22.4667
79.58	6.79748
79.8	8.34098
80.02	8.07857
80.24	5.56994
80.46	7.99121
80.68	6.42662
80.9	0.313179
81.12	8.85368
81.34	19.1022
81.56	18.0288
81.78	9.41696
82	3.05271
82.22	12.8353
82.44	3.46222
82.66	2.5329
82.88	4.61192
83.1	12.8889
83.32	9.30773
83.54	13.4193
83.76	2.2843
83.98	4.51761
84.2	2.49405
84.42	6.07326
84.64	10.6746
84.86	3.80752
85.08	8.48263
85.3	7.69566
85.52	9.64027
85.74	3.6199
85.96	3.54699
86.18	7.65888
86.4	7.47099
86.62	11.7647
86.84	5.33844
87.06	6.2462
87.28	2.09252
87.5	10.5206
87.72	19.1366
87.94	5.30832
88.16	5.557
88.38	5.94077
88.6	3.543
88.82	4.71839
89.04	16.3992
89.26	0.19159
89.48	4.17039
89.7	1.29589
89.92	3.65991
