Measurement: Powder, Xray Data XY Processed
Mineral: Arsenic
Rruff sample: R050653
Ideal chemistry: As
Locality: Japan
Source: University of Arizona Mineral Museum
Description: Gray massive
Diffraction sample description: Powder, with sharp diffraction peaks from pyrite (a = 5.4195(1))
Measured chemistry: As
Cell parameters: a: 4.131(1) b: 4.131(1) c: 4.131(1) alpha: 54.15(2) beta: 54.15(2) gamma: 54.15(2) volume: 43.05(2) crystal system: rhombohedral
x	intensity
5	0
5.22	11.97
5.44	15.027
5.66	11.467
5.88	18.242
6.1	2.783
6.32	9.341
6.54	2.944
6.76	9.362
6.98	13.547
7.2	28.252
7.42	21.913
7.64	8.829
7.86	5.274
8.08	3.804
8.3	25.28
8.52	26.124
8.74	13.727
8.96	13.946
9.18	18.092
9.4	4.734
9.62	13.023
9.84	25.899
10.06	17.68
10.28	21.839
10.5	8.925
10.72	7.873
10.94	14.331
11.16	14.276
11.38	11.886
11.6	14.851
11.82	5.741
12.04	4.684
12.26	18.861
12.48	3.161
12.7	8.227
12.92	18.754
13.14	13.898
13.36	10.982
13.58	2.507
13.8	35.406
14.02	21.864
14.24	12.363
14.46	0.37
14.68	1.611
14.9	0.979
15.12	2.749
15.34	17.279
15.56	27.369
15.78	20.372
16	4.868
16.22	8.715
16.44	2.239
16.66	18.398
16.88	11.9
17.1	4.303
17.32	0.723
17.54	2.162
17.76	9.435
17.98	8.062
18.2	7.724
18.42	3.939
18.64	8.923
18.86	12.022
19.08	21.146
19.3	16.877
19.52	19.705
19.74	13.291
19.96	13.096
20.18	10.528
20.4	2.757
20.62	10.632
20.84	15.53
21.06	13.296
21.28	4.845
21.5	9.618
21.72	9.502
21.94	9.067
22.16	9.164
22.38	12.91
22.6	0.282
22.82	7.568
23.04	28.702
23.26	11.957
23.48	8.961
23.7	5.801
23.92	13.543
24.14	23.819
24.36	9.061
24.58	18.353
24.8	21.751
25.02	1.6
25.24	57.6
25.46	47.333
25.68	2.281
25.9	14.732
26.12	14.88
26.34	18.042
26.56	9.923
26.78	11.798
27	10.692
27.22	1.649
27.44	1.384
27.66	14.49
27.88	28.446
28.1	14.442
28.32	17.1
28.54	50.563
28.76	23.953
28.98	1.256
29.2	20.696
29.42	9.532
29.64	17.518
29.86	18.094
30.08	6.91
30.3	3.353
30.52	8.63
30.74	1.601
30.96	20.209
31.18	12.467
31.4	2.061
31.62	8.425
31.84	13.768
32.06	52.598
32.28	432.867
32.5	174.689
32.72	26.933
32.94	8.599
33.16	161.899
33.38	26.943
33.6	5.987
33.82	21.019
34.04	14.986
34.26	23.838
34.48	13.573
34.7	9.267
34.92	18.756
35.14	17.869
35.36	27.81
35.58	15.665
35.8	25.903
36.02	9.077
36.24	1.616
36.46	10.6
36.68	13.343
36.9	14.772
37.12	112.075
37.34	3.011
37.56	14.608
37.78	19.784
38	2.294
38.22	9.382
38.44	10.426
38.66	32.579
38.88	5.972
39.1	9.111
39.32	14.702
39.54	1.793
39.76	4.047
39.98	12.957
40.2	7.31
40.42	0.205
40.64	24.697
40.86	39.184
41.08	20.25
41.3	9.208
41.52	6.811
41.74	1.95
41.96	15.204
42.18	22.49
42.4	2.578
42.62	16.19
42.84	5.659
43.06	23.092
43.28	0.892
43.5	12.243
43.72	13.719
43.94	20.387
44.16	105.745
44.38	72.937
44.6	16.877
44.82	17.553
45.04	0.44
45.26	8.736
45.48	20.884
45.7	2.534
45.92	9.897
46.14	6.483
46.36	12.959
46.58	23.391
46.8	12.233
47.02	7.832
47.24	5.96
47.46	107.307
47.68	28.098
47.9	6.039
48.12	28.714
48.34	73.922
48.56	88.83
48.78	33.686
49	25.662
49.22	2.896
49.44	9.009
49.66	24.543
49.88	13.078
50.1	16.085
50.32	1.01
50.54	19.642
50.76	0.68
50.98	14.278
51.2	0.782
51.42	47.197
51.64	41
51.86	23.07
52.08	26.935
52.3	23.662
52.52	11.802
52.74	18.014
52.96	19.814
53.18	0.48
53.4	3.463
53.62	16.759
53.84	4.56
54.06	13.258
54.28	15.073
54.5	7.629
54.72	23.607
54.94	23.151
55.16	19.124
55.38	28.684
55.6	18.333
55.82	16.885
56.04	2.409
56.26	71.779
56.48	46.613
56.7	12.265
56.92	3.606
57.14	5.231
57.36	26.73
57.58	6.336
57.8	0.694
58.02	3.708
58.24	0.51
58.46	18.859
58.68	30.617
58.9	10.88
59.12	33.506
59.34	25.462
59.56	47.31
59.78	20.961
60	11.023
60.22	18.071
60.44	20.616
60.66	10.038
60.88	23.416
61.1	9.972
61.32	7.549
61.54	21.869
61.76	35.133
61.98	13.562
62.2	26.852
62.42	19.002
62.64	22.376
62.86	13.41
63.08	7.663
63.3	29.517
63.52	2.357
63.74	3.168
63.96	5.118
64.18	26.053
64.4	16.169
64.62	14.787
64.84	12.778
65.06	18.107
65.28	10.964
65.5	16.648
65.72	2.804
65.94	0.927
66.16	0.535
66.38	10.995
66.6	7.383
66.82	18.073
67.04	14.772
67.26	6.512
67.48	19.382
67.7	24.627
67.92	21.385
68.14	10.525
68.36	16.114
68.58	34.977
68.8	27.328
69.02	14.847
69.24	7.842
69.46	10.511
69.68	13.752
69.9	9.04
70.12	0.239
70.34	11.933
70.56	12.736
70.78	17.607
71	16.75
71.22	11.749
71.44	6.797
71.66	13.076
71.88	12.85
72.1	8.977
72.32	16.821
72.54	10.8
72.76	8.451
72.98	11.282
73.2	26.998
73.42	2.306
73.64	23.905
73.86	14.084
74.08	15.288
74.3	3.416
74.52	1.276
74.74	11.954
74.96	13.743
75.18	17.223
75.4	13.473
75.62	20.851
75.84	6.097
76.06	5.13
76.28	6.169
76.5	18.992
76.72	17.52
76.94	9.503
77.16	26.459
77.38	2.548
77.6	7.576
77.82	13.598
78.04	19.243
78.26	15.756
78.48	26.365
78.7	22.617
78.92	2.519
79.14	20.101
79.36	14.566
79.58	16.887
79.8	19.087
80.02	26.294
80.24	15.955
80.46	17.042
80.68	8.92
80.9	2.684
81.12	0.492
81.34	25.349
81.56	1.692
81.78	16.528
82	14.473
82.22	16.939
82.44	17.297
82.66	11.352
82.88	9.566
83.1	13.116
83.32	8.643
83.54	5.288
83.76	15.886
83.98	16.95
84.2	13.592
84.42	3.084
84.64	7.284
84.86	6.34
85.08	18.91
85.3	6.063
85.52	0.658
85.74	17.089
85.96	11.432
86.18	20.164
86.4	9.82
86.62	17.187
86.84	20.05
87.06	21.941
87.28	10.206
87.5	34.929
87.72	5.649
87.94	0.636
88.16	17.936
88.38	5.364
88.6	5.302
88.82	14.094
89.04	17.819
89.26	9.79
89.48	23.009
89.7	14.733
89.92	22.952
