Measurement: Powder, Xray Data XY Processed
Mineral: Arsenopyrite
Rruff sample: R050071
Ideal chemistry: Fe^3+^(AsS)^3-^
Locality: Yaogangxian mine, Yizhang County, Hunan Province, China
Source: Rock Currier
Description: Steel-gray tabular
Diffraction sample description: Powder
Measured chemistry: FeAsS
Cell parameters: a: 5.7546(5) b: 5.6794(6) c: 5.7813(7) alpha: 90 beta: 112.45(1) gamma: 90 volume: 174.63(3) crystal system: monoclinic
x	intensity
5	0
5.22	4.891
5.44	12.708
5.66	0.538
5.88	14.716
6.1	12.986
6.32	2.736
6.54	7.417
6.76	10.913
6.98	17.66
7.2	13.17
7.42	25.369
7.64	8.824
7.86	13.825
8.08	15.192
8.3	0.086
8.52	18.752
8.74	18.05
8.96	19.695
9.18	5.434
9.4	7.485
9.62	5.93
9.84	20.526
10.06	16.157
10.28	27.144
10.5	11.273
10.72	22.738
10.94	24.701
11.16	20.221
11.38	13.946
11.6	21.301
11.82	7.436
12.04	3.496
12.26	8.57
12.48	1.43
12.7	25.052
12.92	14.939
13.14	6.835
13.36	6.246
13.58	21.04
13.8	14.451
14.02	13.257
14.24	10.841
14.46	2.978
14.68	20.828
14.9	24.251
15.12	8.286
15.34	11.636
15.56	16.434
15.78	12.189
16	8.605
16.22	12.249
16.44	14.758
16.66	8.984
16.88	3.416
17.1	3.988
17.32	17.95
17.54	14.602
17.76	7.534
17.98	9.362
18.2	9.505
18.42	15.753
18.64	8.581
18.86	17.269
19.08	13.182
19.3	10.526
19.52	6.206
19.74	22.866
19.96	1.489
20.18	8.495
20.4	23.333
20.62	23.907
20.84	5.257
21.06	3.825
21.28	18.364
21.5	9.946
21.72	3.947
21.94	20.852
22.16	20.92
22.38	8.151
22.6	24.95
22.82	16.219
23.04	38.895
23.26	9.931
23.48	28.536
23.7	12.258
23.92	12.079
24.14	39.517
24.36	89.268
24.58	13.947
24.8	8.541
25.02	2.994
25.24	9.898
25.46	20.747
25.68	0.688
25.9	3.892
26.12	35.088
26.34	8.995
26.56	3.121
26.78	1.18
27	8.815
27.22	7.93
27.44	7.362
27.66	22.424
27.88	17.691
28.1	19.007
28.32	15.151
28.54	0.881
28.76	4.696
28.98	29.447
29.2	21.491
29.42	12.031
29.64	1.682
29.86	11.987
30.08	31.503
30.3	34.721
30.52	13.221
30.74	1.125
30.96	18.306
31.18	19.389
31.4	26.122
31.62	26.433
31.84	26.25
32.06	16.715
32.28	14.635
32.5	2.963
32.72	24.873
32.94	6.74
33.16	13.835
33.38	28.122
33.6	196.094
33.82	151.289
34.04	21.644
34.26	1.339
34.48	41.965
34.7	21.905
34.92	27.1
35.14	10.417
35.36	11.871
35.58	9.824
35.8	8.249
36.02	32.037
36.24	33.328
36.46	21.775
36.68	76.295
36.9	37.629
37.12	399.054
37.34	127.837
37.56	32.589
37.78	4.157
38	24.469
38.22	3.994
38.44	1.6
38.66	17.823
38.88	20.286
39.1	10.495
39.32	10.626
39.54	26.73
39.76	0.44
39.98	26.284
40.2	11.399
40.42	4.697
40.64	22.519
40.86	26.566
41.08	8.06
41.3	16.725
41.52	27.851
41.74	9.122
41.96	17.016
42.18	9.061
42.4	1.223
42.62	19.719
42.84	22.183
43.06	15.487
43.28	207.908
43.5	22.448
43.72	20.561
43.94	7.332
44.16	19.393
44.38	34.102
44.6	0.879
44.82	6.696
45.04	12.064
45.26	8.331
45.48	10.605
45.7	17.704
45.92	18.794
46.14	3.633
46.36	31.973
46.58	20.693
46.8	22.04
47.02	27.95
47.24	18.756
47.46	1.399
47.68	6.021
47.9	13.517
48.12	2.431
48.34	21.17
48.56	20.517
48.78	10.775
49	4.512
49.22	11.654
49.44	0.855
49.66	20.967
49.88	35.039
50.1	57.873
50.32	62.104
50.54	4.855
50.76	12.563
50.98	22.551
51.2	9.55
51.42	21.951
51.64	14.158
51.86	18.236
52.08	32.526
52.3	11.158
52.52	9.342
52.74	10.641
52.96	25
53.18	1.002
53.4	20.209
53.62	8.41
53.84	31.093
54.06	15.231
54.28	16.625
54.5	30.963
54.72	17.247
54.94	16.679
55.16	9.015
55.38	14.864
55.6	21.954
55.82	18.659
56.04	5.683
56.26	28.101
56.48	75.595
56.7	11.935
56.92	1.806
57.14	16.833
57.36	26.308
57.58	22.68
57.8	19.688
58.02	20.006
58.24	10.846
58.46	30.885
58.68	2.919
58.9	11.981
59.12	28.947
59.34	8.113
59.56	9.191
59.78	18.242
60	19.769
60.22	44.94
60.44	5.948
60.66	2.971
60.88	45.161
61.1	11.429
61.32	7.283
61.54	15.086
61.76	26.028
61.98	27.076
62.2	12.741
62.42	18.838
62.64	22.238
62.86	20.294
63.08	8.648
63.3	20.498
63.52	5.31
63.74	25.031
63.96	6.182
64.18	33.925
64.4	9.942
64.62	11.997
64.84	6.857
65.06	1.283
65.28	6.253
65.5	18.699
65.72	18.865
65.94	2.748
66.16	0.171
66.38	25.75
66.6	5.434
66.82	0.296
67.04	8.536
67.26	35.908
67.48	36.408
67.7	38.22
67.92	16.25
68.14	0.191
68.36	7.899
68.58	8.584
68.8	0.014
69.02	24.598
69.24	9.812
69.46	16.615
69.68	26.765
69.9	34.587
70.12	20.759
70.34	25.231
70.56	20.014
70.78	10.396
71	1.319
71.22	18.419
71.44	1.099
71.66	1.612
71.88	2.825
72.1	15.001
72.32	12.079
72.54	37.86
72.76	29.729
72.98	20.263
73.2	18.904
73.42	21.787
73.64	7.866
73.86	5.274
74.08	26.144
74.3	19.511
74.52	20.99
74.74	21.305
74.96	21.108
75.18	1.508
75.4	25.573
75.62	2.306
75.84	24.696
76.06	3.076
76.28	7.128
76.5	9.644
76.72	20.352
76.94	7.885
77.16	28.258
77.38	2.519
77.6	16.495
77.82	16.271
78.04	20.928
78.26	24.915
78.48	20.832
78.7	17.993
78.92	17.805
79.14	31.418
79.36	9.873
79.58	11.538
79.8	18.505
80.02	4.288
80.24	25.186
80.46	0.504
80.68	14.778
80.9	14.705
81.12	15.656
81.34	13.546
81.56	28.281
81.78	9.181
82	17.986
82.22	12.6
82.44	32.526
82.66	24.188
82.88	10.121
83.1	1.678
83.32	12.989
83.54	26.639
83.76	6.625
83.98	17.032
84.2	11.277
84.42	1.119
84.64	27.826
84.86	11.406
85.08	21.039
85.3	12.91
85.52	4.82
85.74	22.005
85.96	11.025
86.18	22.118
86.4	7.352
86.62	4.615
86.84	7.117
87.06	5.477
87.28	11.404
87.5	27.87
87.72	16.655
87.94	34.546
88.16	31.697
88.38	45.496
88.6	25.851
88.82	3.24
89.04	19.144
89.26	1.377
89.48	18.843
89.7	21.044
89.92	13.623
