Measurement: Powder, Xray Data XY Processed
Mineral: Arthurite
Rruff sample: R060235
Ideal chemistry: Cu^2+^Fe^3+^_2_(As^5+^O_4_)_2_(OH)_2_4H_2_O
Locality: Copper Stope, Majuba Hill mine, Pershing County, Nevada, USA
Source: Michael Scott
Description: Divergent sprays of green thin prismatic crystals
Diffraction sample description: Single crystal, powder profile is calculated
Cell parameters: a: 10.168(5) b: 9.618(7) c: 5.582(4) alpha: 90 beta: 92.18(2) gamma: 90 volume: 545.5(6) crystal system: monoclinic
x	intensity
5	0
5.22	0
5.44	0
5.66	0
5.88	0
6.1	0
6.32	0
6.54	0
6.76	0
6.98	0
7.2	0
7.42	0
7.64	0
7.86	0
8.08	0
8.3	0
8.52	0
8.74	36.413
8.96	0
9.18	0
9.4	0
9.62	0
9.84	0
10.06	0
10.28	0
10.5	0
10.72	0
10.94	0
11.16	0
11.38	0
11.6	0
11.82	0
12.04	0
12.26	0
12.48	0
12.7	67.343
12.92	0
13.14	0
13.36	0
13.58	0
13.8	0
14.02	0
14.24	0
14.46	0
14.68	0
14.9	0
15.12	0
15.34	0
15.56	0
15.78	0
16	0
16.22	0
16.44	0
16.66	0
16.88	0
17.1	0
17.32	0.001
17.54	0.51
17.76	0
17.98	0
18.2	0
18.42	54.111
18.64	0
18.86	0
19.08	0
19.3	0
19.52	0
19.74	21.984
19.96	0
20.18	0
20.4	4.182
20.62	73.825
20.84	0
21.06	0
21.28	0
21.5	0
21.72	0
21.94	0
22.16	0
22.38	0
22.6	0
22.82	0
23.04	0
23.26	0
23.48	0
23.7	0
23.92	0
24.14	0
24.36	0.04
24.58	0
24.8	0
25.02	0.027
25.24	0
25.46	2.606
25.68	0.705
25.9	4.264
26.12	0
26.34	4.418
26.56	0
26.78	0
27	0
27.22	0
27.44	0
27.66	0
27.88	0.022
28.1	0
28.32	0
28.54	0
28.76	0
28.98	0
29.2	11.13
29.42	0
29.64	0
29.86	11.144
30.08	0
30.3	0
30.52	35.987
30.74	0.001
30.96	0
31.18	0
31.4	0
31.62	0.009
31.84	27.663
32.06	3.165
32.28	12.755
32.5	0.005
32.72	0.312
32.94	4.546
33.16	1.145
33.38	1.332
33.6	16.557
33.82	0.005
34.04	0
34.26	12.24
34.48	0.01
34.7	0
34.92	2.589
35.14	0
35.36	1.01
35.58	0
35.8	0.118
36.02	0.07
36.24	2.029
36.46	0.106
36.68	7.82
36.9	0
37.12	1.843
37.34	0.273
37.56	0
37.78	0
38	0.751
38.22	0.002
38.44	2.561
38.66	2.849
38.88	0
39.1	0
39.32	0
39.54	0.132
39.76	0
39.98	0
40.2	0.061
40.42	0
40.64	12.16
40.86	8.63
41.08	1.738
41.3	0.021
41.52	0.078
41.74	0.754
41.96	9.261
42.18	0.042
42.4	3.776
42.62	0.084
42.84	1.62
43.06	3.154
43.28	0
43.5	0
43.72	1.581
43.94	7.299
44.16	1.24
44.38	0.221
44.6	1.652
44.82	0
45.04	0.017
45.26	0.002
45.48	2.134
45.7	1.536
45.92	0
46.14	0.06
46.36	1.504
46.58	0
46.8	0
47.02	0.01
47.24	0.238
47.46	0.356
47.68	0.001
47.9	0.046
48.12	3.584
48.34	0.017
48.56	0.448
48.78	0.047
49	0.096
49.22	0.325
49.44	0.106
49.66	0.557
49.88	0.004
50.1	1.778
50.32	1.055
50.54	0.351
50.76	0.35
50.98	2.081
51.2	0.237
51.42	0.041
51.64	0
51.86	0.008
52.08	0.106
52.3	0.001
52.52	0.819
52.74	4.207
52.96	0.162
53.18	4.3
53.4	1.281
53.62	0.229
53.84	6.674
54.06	2.748
54.28	0.215
54.5	0.003
54.72	0.25
54.94	0.743
55.16	0.449
55.38	0.234
55.6	0.187
55.82	0.486
56.04	0.337
56.26	0.302
56.48	0.364
56.7	0.988
56.92	1.13
57.14	2.741
57.36	0.238
57.58	0.575
57.8	2.955
58.02	0.275
58.24	2.301
58.46	1.206
58.68	0.007
58.9	1.674
59.12	0.638
59.34	0.975
59.56	0.653
59.78	0.098
60	0.873
60.22	0.291
60.44	1.987
60.66	2.616
60.88	3.792
61.1	0.278
61.32	0
61.54	0.499
61.76	0.348
61.98	0.622
62.2	0.013
62.42	1.781
62.64	0.619
62.86	0.028
63.08	6.371
63.3	2.239
63.52	1.382
63.74	3.382
63.96	1.44
64.18	1.112
64.4	1.874
64.62	0.684
64.84	0.255
65.06	0.356
65.28	0
65.5	3.464
65.72	1.577
65.94	0
66.16	0.02
66.38	0.48
66.6	0.594
66.82	0.389
67.04	0.894
67.26	0.73
67.48	0.536
67.7	0.437
67.92	0.534
68.14	0.251
68.36	0.203
68.58	0
68.8	0.775
69.02	0.972
69.24	0.218
69.46	0.072
69.68	0.085
69.9	0.283
70.12	0.084
70.34	0.681
70.56	4.694
70.78	2.053
71	0.209
71.22	0.999
71.44	0.544
71.66	0.06
71.88	0.018
72.1	0.37
72.32	0.299
72.54	0.073
72.76	0.043
72.98	0.12
73.2	0.076
73.42	0.214
73.64	0.19
73.86	0.278
74.08	0.541
74.3	0.34
74.52	0.094
74.74	0.087
74.96	0.041
75.18	0.765
75.4	0.707
75.62	1.201
75.84	0.526
76.06	0.72
76.28	0.618
76.5	0.13
76.72	1.006
76.94	1.192
77.16	0.502
77.38	1.683
77.6	2.726
77.82	0.971
78.04	0.041
78.26	0.342
78.48	0.67
78.7	0.304
78.92	0.045
79.14	0.725
79.36	0.774
79.58	0.425
79.8	0.088
80.02	0.023
80.24	0.026
80.46	0.117
80.68	0.232
80.9	0.329
81.12	0.151
81.34	0.387
81.56	0.881
81.78	0.276
82	0.346
82.22	0.285
82.44	0.303
82.66	0.52
82.88	0.278
83.1	0.155
83.32	0.346
83.54	0.077
83.76	0.001
83.98	0.017
84.2	0.388
84.42	0.237
84.64	0.093
84.86	0.038
85.08	0.189
85.3	0.179
85.52	0.094
85.74	0.188
85.96	0.439
86.18	0.871
86.4	0.255
86.62	0.663
86.84	0.475
87.06	0.078
87.28	0.089
87.5	0.014
87.72	0.002
87.94	0.755
88.16	0.615
88.38	2.35
88.6	0.533
88.82	0.431
89.04	0.362
89.26	0.369
89.48	1.243
89.7	0.278
89.92	0.118
