Measurement: Powder, Xray Data XY Processed
Mineral: Artinite
Rruff sample: R060166
Ideal chemistry: Mg_2_CO_3_(OH)_2_3H_2_O
Locality: San Benito County, California, USA
Source: Marcus Origlieri
Description: Spherical aggregates of divergent colorless acicular crystals
Diffraction sample description: Powder
Measured chemistry: Mg_2.00_CO_3_(OH)_2_Â·3H_2_O ; C and H not measured but estimated by charge balance
Cell parameters: a: 16.556(1) b: 3.1535(3) c: 6.2314(5) alpha: 90 beta: 99.069(8) gamma: 90 volume: 321.28(4) crystal system: monoclinic
x	intensity
5	0
5.22	5.79
5.44	0.489
5.66	10.679
5.88	10.979
6.1	9.193
6.32	0.764
6.54	1.021
6.76	11.621
6.98	12.295
7.2	11.161
7.42	10.772
7.64	10.214
7.86	6.766
8.08	0.58
8.3	6.842
8.52	6.868
8.74	7.967
8.96	6.768
9.18	10.69
9.4	5.562
9.62	4.892
9.84	13.731
10.06	7.448
10.28	3.078
10.5	10.203
10.72	49.77
10.94	84.293
11.16	7.412
11.38	5.519
11.6	3.326
11.82	16.042
12.04	18.705
12.26	1.363
12.48	6.222
12.7	14.584
12.92	9.119
13.14	10.407
13.36	19.971
13.58	15.861
13.8	14.288
14.02	5.603
14.24	12.008
14.46	105.552
14.68	13.55
14.9	5.772
15.12	4.324
15.34	4.42
15.56	9.96
15.78	3.369
16	9.36
16.22	16.354
16.44	42.479
16.66	647.124
16.88	34.946
17.1	11.445
17.32	16.264
17.54	15.45
17.76	4.711
17.98	2.884
18.2	2.98
18.42	2.884
18.64	9.595
18.86	14.682
19.08	6.822
19.3	13.813
19.52	26.755
19.74	2.231
19.96	10.333
20.18	4.548
20.4	4.025
20.62	17.421
20.84	1.711
21.06	5.047
21.28	6.118
21.5	1.469
21.72	42.035
21.94	18.919
22.16	0.731
22.38	11.76
22.6	9.014
22.82	15.602
23.04	6.26
23.26	14.934
23.48	13.455
23.7	18.259
23.92	12.868
24.14	173.659
24.36	41.484
24.58	19.639
24.8	0.934
25.02	7.082
25.24	5.5
25.46	9.111
25.68	3.404
25.9	11.512
26.12	5.65
26.34	10.452
26.56	6.745
26.78	0.495
27	6.602
27.22	24.549
27.44	10.909
27.66	11.397
27.88	0.723
28.1	32.436
28.32	10.782
28.54	8.809
28.76	5.886
28.98	9.271
29.2	15.895
29.42	82.229
29.64	21.289
29.86	11.705
30.08	10.252
30.3	19.318
30.52	7.436
30.74	4.181
30.96	8.94
31.18	5.104
31.4	2.698
31.62	11.199
31.84	0.403
32.06	24.592
32.28	2.167
32.5	20.415
32.72	116.712
32.94	121.249
33.16	32.885
33.38	8.818
33.6	146.536
33.82	23.787
34.04	13.468
34.26	1.692
34.48	11.791
34.7	0.333
34.92	11.813
35.14	6.195
35.36	7.374
35.58	15.519
35.8	7.924
36.02	0.604
36.24	4.964
36.46	1.31
36.68	13.307
36.9	7.849
37.12	20.582
37.34	5.749
37.56	5.418
37.78	9.116
38	13.087
38.22	15.521
38.44	16.933
38.66	4.994
38.88	7.198
39.1	0.113
39.32	30.459
39.54	15.46
39.76	33.876
39.98	0.648
40.2	0.037
40.42	13.105
40.64	34.352
40.86	127.377
41.08	25.957
41.3	11.799
41.52	23.378
41.74	6.73
41.96	13.678
42.18	11.913
42.4	8.717
42.62	17.159
42.84	15.448
43.06	14.612
43.28	11.227
43.5	10.369
43.72	27.466
43.94	14.09
44.16	43.367
44.38	2.966
44.6	4.975
44.82	0.468
45.04	15.358
45.26	12.874
45.48	2.961
45.7	3.499
45.92	9.896
46.14	11.972
46.36	15.764
46.58	10.264
46.8	8.797
47.02	9.633
47.24	28.499
47.46	53.959
47.68	10.559
47.9	2.605
48.12	2.671
48.34	13.229
48.56	8.384
48.78	23.108
49	31.807
49.22	7.56
49.44	12.651
49.66	6.159
49.88	5.342
50.1	0.826
50.32	7.091
50.54	16.116
50.76	4.694
50.98	0.022
51.2	9.408
51.42	2.215
51.64	6.798
51.86	12.121
52.08	1.593
52.3	7.194
52.52	13.566
52.74	24.12
52.96	11.348
53.18	8.059
53.4	4.954
53.62	11.862
53.84	25.081
54.06	17.331
54.28	4.628
54.5	2.586
54.72	4.871
54.94	8.326
55.16	4.824
55.38	5.47
55.6	11.948
55.82	20.658
56.04	13.483
56.26	8.826
56.48	9.541
56.7	10.014
56.92	2.317
57.14	9.319
57.36	5.3
57.58	8.188
57.8	7.878
58.02	9.105
58.24	9.547
58.46	18.226
58.68	12.017
58.9	4.18
59.12	2.805
59.34	13.061
59.56	8.014
59.78	11.988
60	9.056
60.22	3.138
60.44	2.925
60.66	5.353
60.88	20.451
61.1	20.894
61.32	8.236
61.54	4.563
61.76	10.553
61.98	5.889
62.2	4.195
62.42	4.801
62.64	7.033
62.86	9.745
63.08	16.741
63.3	7.167
63.52	1.003
63.74	13.108
63.96	3.192
64.18	1.422
64.4	17.582
64.62	10.9
64.84	2.766
65.06	5.899
65.28	3.787
65.5	4.159
65.72	6.473
65.94	7.559
66.16	3.64
66.38	9.695
66.6	6.778
66.82	12.754
67.04	5.555
67.26	4.361
67.48	6.279
67.7	13.076
67.92	0.09
68.14	4.75
68.36	14.719
68.58	12.972
68.8	17.692
69.02	8.438
69.24	10.421
69.46	4.341
69.68	1.956
69.9	10.867
70.12	19.938
70.34	6.184
70.56	10.059
70.78	17.622
71	11.959
71.22	3.176
71.44	5.456
71.66	6.424
71.88	0.398
72.1	4.008
72.32	18.114
72.54	8.075
72.76	16.104
72.98	8.956
73.2	9.362
73.42	15.915
73.64	5.947
73.86	6.07
74.08	18.368
74.3	8.785
74.52	3.716
74.74	7.042
74.96	2.308
75.18	11.36
75.4	13.573
75.62	8.352
75.84	3.381
76.06	4.519
76.28	11.695
76.5	8.568
76.72	5.249
76.94	5.236
77.16	2.099
77.38	6.923
77.6	8.831
77.82	9.599
78.04	8.533
78.26	13.709
78.48	6.725
78.7	5.732
78.92	0.788
79.14	0.842
79.36	3.868
79.58	4.942
79.8	9.008
80.02	7.244
80.24	7.475
80.46	4.414
80.68	1.588
80.9	2.684
81.12	4.798
81.34	5.747
81.56	10.804
81.78	8.791
82	4.251
82.22	10.736
82.44	3.129
82.66	8.36
82.88	4.364
83.1	3.101
83.32	4.111
83.54	12.029
83.76	11.117
83.98	7.051
84.2	12.009
84.42	7.287
84.64	5.411
84.86	1.354
85.08	5.621
85.3	4.543
85.52	5.476
85.74	4.413
85.96	5.28
86.18	7.089
86.4	3.272
86.62	4.187
86.84	0.875
87.06	1.519
87.28	0.481
87.5	12.464
87.72	5.568
87.94	5.76
88.16	8.526
88.38	2.644
88.6	0.609
88.82	4.842
89.04	3.024
89.26	6.381
89.48	8.651
89.7	8.679
89.92	1.572
