Measurement: Powder, Xray Data XY Processed
Mineral: Atacamite
Rruff sample: R050098
Ideal chemistry: Cu^2+^_2_Cl(OH)_3_
Locality: La Farola mine, Tierra Amarilla, Atacama, Chile
Source: Rock Currier
Description: Green prismatic single crystals
Diffraction sample description: Powder
Measured chemistry: Cu_2.00_Cl_1.00_(OH)_3_
Cell parameters: a: 6.0303(1) b: 6.8677(2) c: 9.1189(2) alpha: 90. beta: 90. gamma: 90. volume: 377.65(1) crystal system: orthorhombic
x	intensity
5	0
5.22	9.61926
5.44	19.0404
5.66	2.94539
5.88	9.41641
6.1	24.5853
6.32	18.2677
6.54	20.4661
6.76	10.1679
6.98	23.2859
7.2	25.0538
7.42	6.85848
7.64	26.6657
7.86	19.1902
8.08	5.36232
8.3	10.7567
8.52	27.728
8.74	31.3102
8.96	17.9816
9.18	17.6377
9.4	15.5808
9.62	23.6717
9.84	11.4384
10.06	4.61652
10.28	8.46938
10.5	10.9932
10.72	13.5429
10.94	22.3667
11.16	11.0036
11.38	18.9982
11.6	32.8067
11.82	19.1134
12.04	9.62222
12.26	14.3203
12.48	1.57933
12.7	23.777
12.92	15.0604
13.14	11.0326
13.36	2.96737
13.58	16.9663
13.8	14.0173
14.02	4.35007
14.24	8.84834
14.46	25.413
14.68	21.0215
14.9	21.0711
15.12	21.3384
15.34	13.6991
15.56	9.60567
15.78	35.3972
16	16.4256
16.22	227.24
16.44	16.4808
16.66	27.7598
16.88	4.47224
17.1	7.11275
17.32	10.0739
17.54	109.058
17.76	40.3763
17.98	18.9844
18.2	29.492
18.42	34.3979
18.64	32.3674
18.86	16.4782
19.08	20.4152
19.3	17.1596
19.52	202.575
19.74	8.68062
19.96	12.3269
20.18	19.3342
20.4	5.75964
20.62	19.1953
20.84	22.4474
21.06	21.4578
21.28	21.1073
21.5	20.9795
21.72	11.265
21.94	70.0251
22.16	24.5163
22.38	22.7073
22.6	12.0762
22.82	2.64002
23.04	30.9488
23.26	9.12604
23.48	21.7503
23.7	25.4334
23.92	32.2337
24.14	13.844
24.36	4.558
24.58	12.3095
24.8	15.8568
25.02	16.6222
25.24	3.08981
25.46	0.892632
25.68	11.0924
25.9	24.4731
26.12	25.6723
26.34	14.487
26.56	8.07805
26.78	27.0571
27	5.24799
27.22	17.7223
27.44	1.41244
27.66	18.1103
27.88	25.9626
28.1	8.5095
28.32	16.4421
28.54	27.6102
28.76	27.7365
28.98	10.109
29.2	25.35
29.42	40.3006
29.64	31.9496
29.86	8.16067
30.08	4.49808
30.3	16.5762
30.52	19.1885
30.74	6.79742
30.96	4.72964
31.18	10.4617
31.4	20.0308
31.62	240.151
31.84	11.6203
32.06	47.2002
32.28	323.404
32.5	204.453
32.72	49.6178
32.94	42.9589
33.16	13.9904
33.38	9.67587
33.6	17.1425
33.82	19.5673
34.04	19.0229
34.26	23.3006
34.48	6.60315
34.7	5.34258
34.92	0.494644
35.14	33.3685
35.36	20.8853
35.58	88.2884
35.8	79.6887
36.02	19.2398
36.24	12.8704
36.46	11.9595
36.68	4.10634
36.9	4.5257
37.12	10.6974
37.34	12.4826
37.56	11.296
37.78	9.72076
38	5.30397
38.22	15.0927
38.44	30.2928
38.66	19.8107
38.88	20.917
39.1	5.22725
39.32	59.3575
39.54	1541.32
39.76	732.702
39.98	33.344
40.2	1.99989
40.42	11.5342
40.64	19.0815
40.86	12.5986
41.08	47.9681
41.3	4.02541
41.52	5.14539
41.74	16.3749
41.96	5.22959
42.18	168.967
42.4	80.0195
42.62	6.16142
42.84	21.6273
43.06	5.76294
43.28	12.0823
43.5	14.4561
43.72	9.36435
43.94	1.33956
44.16	12.1768
44.38	23.1856
44.6	16.3605
44.82	18.105
45.04	10.2124
45.26	5.2129
45.48	19.652
45.7	11.2386
45.92	21.0847
46.14	0.74818
46.36	43.3226
46.58	7.51201
46.8	14.9225
47.02	4.56254
47.24	1.5333
47.46	3.75639
47.68	32.9232
47.9	18.3145
48.12	18.7146
48.34	6.12701
48.56	8.01992
48.78	9.58402
49	3.24411
49.22	13.5011
49.44	8.95981
49.66	10.4731
49.88	25.6327
50.1	61.9918
50.32	106.332
50.54	2.54438
50.76	3.28798
50.98	17.2714
51.2	31.3524
51.42	4.60418
51.64	19.8341
51.86	7.44601
52.08	16.7277
52.3	19.8623
52.52	118.735
52.74	11.2825
52.96	0.417091
53.18	0.190353
53.4	21.9537
53.62	10.6869
53.84	19.2178
54.06	19.2454
54.28	12.1997
54.5	12.6662
54.72	9.08773
54.94	2.18232
55.16	4.01873
55.38	8.26006
55.6	7.05503
55.82	14.0869
56.04	11.8659
56.26	14.466
56.48	20.478
56.7	12.5172
56.92	9.82045
57.14	19.2546
57.36	24.453
57.58	17.4227
57.8	14.6352
58.02	1.85534
58.24	8.04475
58.46	7.17073
58.68	15.5654
58.9	8.77002
59.12	28.8017
59.34	50.4408
59.56	20.3946
59.78	12.1674
60	6.88211
60.22	7.12991
60.44	18.2714
60.66	5.6318
60.88	21.0908
61.1	6.98497
61.32	24.1777
61.54	28.7019
61.76	27.6271
61.98	12.7831
62.2	0.917652
62.42	25.5828
62.64	1.51734
62.86	0.697502
63.08	109.054
63.3	37.907
63.52	3.91663
63.74	13.1689
63.96	15.2286
64.18	28.2935
64.4	16.1978
64.62	9.09818
64.84	11.03
65.06	11.1478
65.28	3.2276
65.5	22.2335
65.72	24.9808
65.94	9.65611
66.16	7.43408
66.38	3.76345
66.6	1.10574
66.82	18.8997
67.04	1.96972
67.26	9.09403
67.48	16.8869
67.7	12.3168
67.92	7.96063
68.14	8.10735
68.36	39.372
68.58	18.4423
68.8	5.41338
69.02	40.0117
69.24	15.203
69.46	17.7429
69.68	39.0625
69.9	2.66588
70.12	8.29708
70.34	18.5421
70.56	12.1368
70.78	16.5488
71	3.0045
71.22	14.091
71.44	17.4156
71.66	13.0162
71.88	13.0629
72.1	25.1762
72.32	5.15229
72.54	19.3717
72.76	12.2256
72.98	8.97988
73.2	14.1944
73.42	22.1049
73.64	1.33976
73.86	7.05553
74.08	15.9298
74.3	22.2291
74.52	23.3794
74.74	11.3217
74.96	15.1067
75.18	6.43274
75.4	22.1473
75.62	29.6874
75.84	15.6808
76.06	26.7099
76.28	8.72407
76.5	10.004
76.72	22.7041
76.94	6.03313
77.16	1.49088
77.38	9.93677
77.6	5.10042
77.82	11.7694
78.04	20.5303
78.26	20.6417
78.48	14.9816
78.7	4.62116
78.92	6.04988
79.14	17.9604
79.36	17.6996
79.58	14.0106
79.8	5.34576
80.02	5.52261
80.24	11.415
80.46	8.58137
80.68	6.18033
80.9	6.06509
81.12	5.28859
81.34	10.3575
81.56	13.7688
81.78	0.938873
82	10.4121
82.22	9.05747
82.44	5.48614
82.66	3.71413
82.88	7.07231
83.1	12.1514
83.32	18.0446
83.54	24.1631
83.76	10.0172
83.98	12.5152
84.2	8.19912
84.42	25.3269
84.64	2.11041
84.86	0.472679
85.08	40.4642
85.3	75.8966
85.52	1.67212
85.74	25.1395
85.96	16.7274
86.18	11.1757
86.4	11.7663
86.62	8.98539
86.84	27.7737
87.06	13.4742
87.28	9.23057
87.5	14.7899
87.72	13.3675
87.94	9.69041
88.16	10.1633
88.38	5.74022
88.6	15.9794
88.82	10.8929
89.04	22.5477
89.26	12.338
89.48	2.61281
89.7	19.7086
89.92	6.43507
