Measurement: Powder, Xray Data XY Processed
Mineral: Aubertite
Rruff sample: R060751
Ideal chemistry: Cu^2+^Al(S^6+^O_4_)_2_Cl14H_2_O
Locality: Quetena mine, Chuquicamata, Chile
Source: Bob Jenkins
Description: Light green massive
Diffraction sample description: Powder
Cell parameters: a: 6.290(2) b: 13.198(2) c: 6.2800(8) alpha: 91.87(1) beta: 94.67(2) gamma: 82.48(2) volume: 515.0(0) crystal system: triclinic
x	intensity
5	0
5.22	3.58813
5.44	17.7035
5.66	15.577
5.88	10.4607
6.1	20.8441
6.32	12.374
6.54	7.56916
6.76	15.006
6.98	4.40864
7.2	8.24461
7.42	10.1938
7.64	16.9571
7.86	2.81603
8.08	9.38346
8.3	3.5547
8.52	7.84126
8.74	9.22177
8.96	8.8064
9.18	8.94336
9.4	2.73342
9.62	8.67538
9.84	2.57545
10.06	9.1119
10.28	14.5153
10.5	1.91922
10.72	10.7324
10.94	2.30233
11.16	17.3195
11.38	10.8319
11.6	14.4996
11.82	7.82456
12.04	5.87264
12.26	2.9278
12.48	19.22
12.7	5.6531
12.92	5.91927
13.14	8.2853
13.36	1.38279
13.58	104.057
13.8	1.61309
14.02	10.1305
14.24	27.1468
14.46	3.32185
14.68	2.68198
14.9	13.2542
15.12	11.0695
15.34	17.792
15.56	7.16434
15.78	39.3495
16	25.5449
16.22	17.9109
16.44	5.77897
16.66	13.1454
16.88	9.02962
17.1	2.14622
17.32	14.1586
17.54	13.3336
17.76	13.1026
17.98	3.35554
18.2	0.564774
18.42	89.8997
18.64	12.5392
18.86	9.63435
19.08	0.407181
19.3	55.1022
19.52	13.8072
19.74	304.529
19.96	32.8195
20.18	19.8649
20.4	147.281
20.62	4.40982
20.84	63.0691
21.06	8.88061
21.28	3.45137
21.5	61.2331
21.72	11.2859
21.94	5.8688
22.16	3.39937
22.38	85.886
22.6	6.95332
22.82	5.06694
23.04	0.205246
23.26	4.08463
23.48	24.8071
23.7	12.4264
23.92	13.3572
24.14	142.651
24.36	3.2247
24.58	21.2786
24.8	8.89667
25.02	8.2668
25.24	23.5106
25.46	76.3169
25.68	1.17264
25.9	16.0483
26.12	6.08379
26.34	16.366
26.56	62.5127
26.78	64.2521
27	22.0837
27.22	19.1018
27.44	0.80014
27.66	8.57455
27.88	3.42934
28.1	14.9499
28.32	7.20034
28.54	97.161
28.76	23.3145
28.98	4.8699
29.2	91.51
29.42	12.2087
29.64	0.131634
29.86	7.9566
30.08	21.861
30.3	1.89315
30.52	15.0797
30.74	4.11267
30.96	30.4595
31.18	15.5015
31.4	16.914
31.62	3.84961
31.84	7.59618
32.06	2.64955
32.28	2.83003
32.5	17.2466
32.72	45.0182
32.94	20.2575
33.16	42.5291
33.38	37.5315
33.6	4.86322
33.82	9.7589
34.04	15.2051
34.26	18.6776
34.48	4.35521
34.7	12.735
34.92	35.6213
35.14	4.06211
35.36	20.6997
35.58	24.0731
35.8	12.4506
36.02	8.73104
36.24	9.62676
36.46	11.7266
36.68	33.3814
36.9	5.37263
37.12	14.6517
37.34	16.4214
37.56	25.1364
37.78	6.72112
38	2.45641
38.22	6.45858
38.44	13.0702
38.66	1.33477
38.88	2.2533
39.1	27.2935
39.32	11.9984
39.54	15.5656
39.76	2.54354
39.98	8.41685
40.2	14.3166
40.42	14.3189
40.64	11.4713
40.86	11.9465
41.08	13.0321
41.3	9.48497
41.52	21.5202
41.74	20.9817
41.96	17.0039
42.18	1.69073
42.4	15.0071
42.62	23.4453
42.84	15.633
43.06	24.5352
43.28	1.70361
43.5	12.9101
43.72	4.59468
43.94	13.8383
44.16	9.85957
44.38	8.97582
44.6	5.9657
44.82	6.88904
45.04	10.6557
45.26	11.5949
45.48	17.2882
45.7	5.98884
45.92	37.0559
46.14	6.14474
46.36	2.87316
46.58	0.451042
46.8	8.52796
47.02	1.48995
47.24	3.85778
47.46	22.0034
47.68	36.2489
47.9	39.6098
48.12	8.44096
48.34	7.83434
48.56	23.8081
48.78	8.08436
49	12.5506
49.22	6.78793
49.44	7.82092
49.66	1.24841
49.88	1.76048
50.1	9.49303
50.32	16.9019
50.54	19.3357
50.76	10.0432
50.98	15.4053
51.2	12.5986
51.42	11.8536
51.64	8.89559
51.86	11.2313
52.08	19.6119
52.3	5.87964
52.52	7.13513
52.74	0.830223
52.96	7.31349
53.18	9.86518
53.4	13.205
53.62	11.0808
53.84	14.0591
54.06	3.25628
54.28	8.30327
54.5	5.52034
54.72	13.77
54.94	12.8638
55.16	0.453297
55.38	11.6847
55.6	8.52712
55.82	3.42236
56.04	15.1348
56.26	14.3521
56.48	2.69744
56.7	1.03153
56.92	18.8073
57.14	10.9026
57.36	6.96874
57.58	12.2434
57.8	6.39341
58.02	6.95446
58.24	8.90684
58.46	12.7455
58.68	5.87257
58.9	6.72466
59.12	7.7316
59.34	8.97743
59.56	3.18333
59.78	10.9747
60	75.1719
60.22	17.7456
60.44	17.8963
60.66	14.1661
60.88	9.16657
61.1	3.20744
61.32	3.39893
61.54	11.4155
61.76	10.2507
61.98	5.26175
62.2	3.22039
62.42	4.01218
62.64	3.35579
62.86	1.37989
63.08	6.18799
63.3	9.28276
63.52	6.03256
63.74	15.0776
63.96	9.05418
64.18	2.14104
64.4	18.7331
64.62	4.04279
64.84	11.706
65.06	14.7314
65.28	5.76146
65.5	1.78109
65.72	11.2655
65.94	11.5643
66.16	13.5741
66.38	12.5081
66.6	8.62865
66.82	14.0051
67.04	11.91
67.26	7.83155
67.48	8.19874
67.7	14.6445
67.92	10.6331
68.14	33.0763
68.36	53.6389
68.58	9.62403
68.8	12.6381
69.02	10.505
69.24	2.40093
69.46	8.56264
69.68	5.36304
69.9	8.00002
70.12	10.6375
70.34	4.7624
70.56	5.94625
70.78	14.8711
71	4.27907
71.22	7.47607
71.44	10.1915
71.66	7.53185
71.88	6.60711
72.1	4.74615
72.32	10.056
72.54	3.1063
72.76	11.1431
72.98	15.99
73.2	0.611704
73.42	14.3886
73.64	19.9145
73.86	16.1854
74.08	5.2692
74.3	3.33137
74.52	1.15637
74.74	2.19914
74.96	4.30175
75.18	8.52861
75.4	4.80296
75.62	14.8897
75.84	11.0643
76.06	1.06177
76.28	4.07727
76.5	1.86143
76.72	8.22877
76.94	9.33804
77.16	8.53991
77.38	3.76419
77.6	11.5707
77.82	3.46195
78.04	8.63063
78.26	7.56696
78.48	4.54676
78.7	0.468195
78.92	8.46465
79.14	8.29351
79.36	10.3743
79.58	3.29115
79.8	5.05285
80.02	19.9254
80.24	10.752
80.46	0.141647
80.68	10.7432
80.9	9.10607
81.12	8.97199
81.34	20.2363
81.56	10.5288
81.78	7.73895
82	0.989386
82.22	0.103628
82.44	11.7614
82.66	11.8646
82.88	8.75974
83.1	13.3374
83.32	9.3736
83.54	8.482
83.76	14.3578
83.98	13.4413
84.2	1.45239
84.42	14.1724
84.64	1.87864
84.86	8.57742
85.08	3.69001
85.3	11.6799
85.52	5.09569
85.74	4.32241
85.96	11.3281
86.18	7.42191
86.4	9.32171
86.62	10.1809
86.84	8.25163
87.06	3.34114
87.28	19.3151
87.5	14.4961
87.72	15.6806
87.94	9.39064
88.16	7.22443
88.38	7.27716
88.6	6.81825
88.82	2.08844
89.04	4.51095
89.26	13.9942
89.48	5.43957
89.7	10.8215
89.92	6.20587
