Measurement: Powder, Xray Data XY Processed
Mineral: Augite
Rruff sample: R061086
Ideal chemistry: (Ca,Mg,Fe^2+^,Fe^3+^)_2_(Si,Al)_2_O_6_
Locality: Boreslav, Teplitz, Bohemia, Czech Republic
Source: Michael Scott
Description: Black to dark green tabular euhedral crystal
Diffraction sample description: Powder
Measured chemistry: (Ca_0.88_Mg_0.83_Fe_0.13_Al_0.08_Na_0.04_Ti_0.03_Cr_0.01_)_Σ=2_(Si_1.89_Al_0.11_)_Σ=2_O_6_
Cell parameters: a: 9.7440(6) b: 8.8954(5) c: 5.2725(4) alpha: 90 beta: 106.098(6) gamma: 90 volume: 439.08(3) crystal system: monoclinic
x	intensity
5	0
5.22	7.58905
5.44	0.80208
5.66	14.4413
5.88	3.9314
6.1	13.793
6.32	14.7176
6.54	3.73647
6.76	7.68555
6.98	2.97387
7.2	13.2395
7.42	9.95786
7.64	6.60863
7.86	0.18779
8.08	6.70625
8.3	0.76792
8.52	5.62795
8.74	2.27818
8.96	20.7255
9.18	5.36662
9.4	5.57511
9.62	10.9374
9.84	10.2089
10.06	4.45146
10.28	3.71506
10.5	14.1204
10.72	5.59537
10.94	1.8546
11.16	8.88998
11.38	1.86902
11.6	2.14005
11.82	2.24924
12.04	11.6208
12.26	7.76086
12.48	2.67036
12.7	10.6272
12.92	8.48735
13.14	2.26154
13.36	10.3435
13.58	4.55331
13.8	5.68035
14.02	13.7079
14.24	8.02745
14.46	1.79792
14.68	5.21033
14.9	13.1573
15.12	14.107
15.34	11.1161
15.56	3.10645
15.78	2.89322
16	5.7846
16.22	6.97384
16.44	1.97131
16.66	3.71882
16.88	0.286127
17.1	4.51709
17.32	3.96845
17.54	11.0148
17.76	11.1899
17.98	12.168
18.2	3.12206
18.42	4.34122
18.64	8.05647
18.86	10.9955
19.08	9.91517
19.3	6.35632
19.52	5.45627
19.74	8.07009
19.96	27.2895
20.18	6.37169
20.4	9.48337
20.62	1.41368
20.84	6.42524
21.06	5.79343
21.28	3.8547
21.5	4.28076
21.72	5.26059
21.94	12.2071
22.16	2.28525
22.38	13.9238
22.6	5.14348
22.82	3.28624
23.04	5.19174
23.26	7.15767
23.48	4.81228
23.7	6.7384
23.92	0.322392
24.14	7.20874
24.36	6.11894
24.58	3.96769
24.8	4.92751
25.02	6.04206
25.24	9.94118
25.46	11.1493
25.68	11.9684
25.9	3.07343
26.12	3.15479
26.34	10.9744
26.56	3.64043
26.78	16.5488
27	13.7118
27.22	8.8984
27.44	12.6624
27.66	128.515
27.88	10.4255
28.1	2.29129
28.32	11.2334
28.54	5.72079
28.76	1.27982
28.98	10.8456
29.2	9.36163
29.42	7.48355
29.64	10.8478
29.86	262.195
30.08	27.07
30.3	46.4893
30.52	11.2743
30.74	8.64699
30.96	59.1599
31.18	9.61566
31.4	6.08194
31.62	2.72943
31.84	1.44873
32.06	0.096527
32.28	12.2545
32.5	11.555
32.72	10.1321
32.94	10.3776
33.16	9.55734
33.38	1.72222
33.6	8.14772
33.82	5.82187
34.04	13.4003
34.26	10.8874
34.48	8.39199
34.7	13.4003
34.92	18.9211
35.14	36.2956
35.36	19.1941
35.58	14.5572
35.8	52.7297
36.02	7.05593
36.24	1.85545
36.46	8.7142
36.68	4.09926
36.9	4.53888
37.12	6.88689
37.34	8.18975
37.56	6.55148
37.78	9.43355
38	3.3099
38.22	8.19492
38.44	7.9228
38.66	3.77313
38.88	8.49192
39.1	8.6164
39.32	25.0047
39.54	5.97969
39.76	2.94135
39.98	3.40418
40.2	6.77341
40.42	13.7544
40.64	18.0148
40.86	11.7786
41.08	17.3586
41.3	3.07783
41.52	5.30471
41.74	2.78436
41.96	10.5158
42.18	17.3181
42.4	53.4304
42.62	11.3851
42.84	10.4834
43.06	19.0955
43.28	11.1687
43.5	5.29546
43.72	0.590867
43.94	3.47992
44.16	4.95967
44.38	5.21202
44.6	23.6385
44.82	26.5793
45.04	12.544
45.26	8.50469
45.48	4.85937
45.7	8.1653
45.92	0.556417
46.14	6.02529
46.36	15.6733
46.58	8.01527
46.8	1.25757
47.02	5.31325
47.24	5.4422
47.46	7.72211
47.68	0.671294
47.9	7.59917
48.12	9.54528
48.34	8.44561
48.56	4.42037
48.78	6.97071
49	11.5557
49.22	11.8556
49.44	6.83789
49.66	7.80565
49.88	27.415
50.1	6.34251
50.32	11.4083
50.54	9.33292
50.76	8.11941
50.98	4.09219
51.2	3.00588
51.42	4.60881
51.64	7.52771
51.86	3.32393
52.08	3.37736
52.3	53.4132
52.52	16.7771
52.74	2.74357
52.96	2.4291
53.18	7.72125
53.4	6.46443
53.62	5.63582
53.84	2.72406
54.06	0.285556
54.28	6.57673
54.5	0.780512
54.72	5.91073
54.94	7.73285
55.16	14.527
55.38	6.73849
55.6	7.41472
55.82	1.14596
56.04	0.071226
56.26	10.7255
56.48	34.6237
56.7	50.1116
56.92	6.80915
57.14	21.6715
57.36	4.60545
57.58	4.76482
57.8	3.52475
58.02	7.52877
58.24	12.6368
58.46	5.18013
58.68	16.5568
58.9	10.3905
59.12	7.71123
59.34	11.5038
59.56	7.17805
59.78	18.7187
60	19.3911
60.22	0.281287
60.44	5.50324
60.66	3.10284
60.88	12.0064
61.1	2.09576
61.32	14.3828
61.54	24.5598
61.76	3.82496
61.98	2.81971
62.2	2.74862
62.42	7.5234
62.64	14.6374
62.86	4.9773
63.08	6.27625
63.3	8.80928
63.52	8.00143
63.74	13.3621
63.96	10.8669
64.18	4.85935
64.4	4.57714
64.62	3.24534
64.84	15.5655
65.06	11.3072
65.28	3.98396
65.5	0.693988
65.72	20.6315
65.94	22.3734
66.16	8.85788
66.38	24.6077
66.6	8.85191
66.82	1.49356
67.04	9.7823
67.26	11.0723
67.48	4.52854
67.7	10.9811
67.92	5.48413
68.14	10.0869
68.36	1.26759
68.58	9.54609
68.8	2.47252
69.02	3.5918
69.24	2.96109
69.46	8.11655
69.68	7.91521
69.9	8.61063
70.12	12.1891
70.34	7.92946
70.56	6.27125
70.78	3.21729
71	3.17517
71.22	18.9098
71.44	13.8939
71.66	2.31285
71.88	12.2467
72.1	4.3497
72.32	5.51857
72.54	2.00207
72.76	11.4177
72.98	8.46638
73.2	9.31768
73.42	5.30426
73.64	2.27265
73.86	10.1928
74.08	10.7734
74.3	2.28798
74.52	4.27516
74.74	5.53607
74.96	9.08705
75.18	7.02844
75.4	9.12087
75.62	6.1572
75.84	7.62674
76.06	1.72694
76.28	2.7287
76.5	6.87164
76.72	16.6871
76.94	9.70521
77.16	14.6927
77.38	8.72562
77.6	5.74146
77.82	4.76443
78.04	12.5611
78.26	2.30353
78.48	0.841159
78.7	1.8518
78.92	9.70723
79.14	5.58473
79.36	3.67692
79.58	5.82856
79.8	7.03083
80.02	5.17925
80.24	13.2056
80.46	4.30943
80.68	0.177748
80.9	2.09638
81.12	2.06992
81.34	5.17535
81.56	8.07834
81.78	8.10393
82	2.88942
82.22	7.83446
82.44	6.21583
82.66	4.47342
82.88	2.51966
83.1	1.40211
83.32	12.5984
83.54	6.82737
83.76	11.7405
83.98	4.8029
84.2	5.86156
84.42	1.13687
84.64	15.858
84.86	8.50415
85.08	13.4369
85.3	2.44787
85.52	7.55445
85.74	4.39686
85.96	4.21746
86.18	9.30535
86.4	7.28427
86.62	4.32977
86.84	2.25229
87.06	4.35615
87.28	4.01079
87.5	3.92279
87.72	5.85174
87.94	0.599718
88.16	9.58502
88.38	6.61693
88.6	0.660504
88.82	3.92296
89.04	7.9198
89.26	4.90444
89.48	17.3948
89.7	16.4107
89.92	6.38511
