Measurement: Powder, Xray Data XY Processed
Mineral: Aurichalcite
Rruff sample: R060426
Ideal chemistry: Zn^2+^_5_(CO_3_)_2_(OH)_6_
Locality: Bisbee, Cochise County, Arizona, USA
Source: Michael Scott
Description: Divergent sprays of light blue lathlike crystals
Diffraction sample description: Powder
Measured chemistry: (Zn_3.61_Cu_1.33_Fe^2+^_0.06_)_Î£=5_(CO_3_)_2_(OH)_6_
Cell parameters: a: 13.802(1) b: 6.4105(3) c: 5.2917(6) alpha: 90. beta: 100.722(7) gamma: 90. volume: 460.04(5) crystal system: monoclinic
x	intensity
5	0
5.22	6.755
5.44	14.167
5.66	14.972
5.88	7.61
6.1	19.679
6.32	20.871
6.54	11.03
6.76	8.831
6.98	6.245
7.2	16.179
7.42	13.552
7.64	5.286
7.86	19.835
8.08	16.452
8.3	9.188
8.52	4.932
8.74	15.186
8.96	10.364
9.18	15.643
9.4	11.589
9.62	4.038
9.84	9.632
10.06	9.297
10.28	7.754
10.5	6.709
10.72	1.883
10.94	7.19
11.16	8.927
11.38	1.286
11.6	5.325
11.82	36.383
12.04	6.377
12.26	14.613
12.48	1.707
12.7	19.181
12.92	115.339
13.14	411.229
13.36	46.611
13.58	14.652
13.8	10.57
14.02	6.922
14.24	11.442
14.46	7.86
14.68	14.794
14.9	4.745
15.12	0.983
15.34	24.19
15.56	18.252
15.78	26.372
16	5.558
16.22	4.024
16.44	10.881
16.66	9.314
16.88	14.306
17.1	23.668
17.32	3.375
17.54	8.477
17.76	3.651
17.98	3.194
18.2	14.047
18.42	9.799
18.64	9.477
18.86	6.312
19.08	63.189
19.3	16.737
19.52	16.172
19.74	13.209
19.96	0.122
20.18	7.663
20.4	8.783
20.62	19.09
20.84	3.309
21.06	4.32
21.28	21.507
21.5	12.068
21.72	10.799
21.94	12.8
22.16	2.767
22.38	8.867
22.6	6.051
22.82	4.497
23.04	5.261
23.26	4.081
23.48	45.632
23.7	17.311
23.92	35.236
24.14	405.8
24.36	15.453
24.58	10.989
24.8	20.36
25.02	8.18
25.24	15.161
25.46	2.432
25.68	6.878
25.9	10.894
26.12	6.968
26.34	34.995
26.56	11.75
26.78	7.454
27	6.111
27.22	20.288
27.44	132.083
27.66	24.461
27.88	114.92
28.1	11.424
28.32	5.587
28.54	35.572
28.76	26.581
28.98	7.247
29.2	12.679
29.42	11.781
29.64	18.072
29.86	42.771
30.08	10.855
30.3	4.831
30.52	5.133
30.74	39.676
30.96	67.122
31.18	17.286
31.4	9.904
31.62	12.607
31.84	88.723
32.06	9.101
32.28	12.659
32.5	17.181
32.72	34.676
32.94	84.6
33.16	13.762
33.38	5.737
33.6	5.896
33.82	50.317
34.04	87.545
34.26	236.918
34.48	51.994
34.7	30.572
34.92	4.766
35.14	6.643
35.36	10.751
35.58	23.101
35.8	11.337
36.02	65.044
36.24	37.798
36.46	78.963
36.68	30.966
36.9	21.107
37.12	61.869
37.34	25.33
37.56	11.729
37.78	2.037
38	3.106
38.22	1.988
38.44	11.794
38.66	44.444
38.88	22.302
39.1	15.862
39.32	20.503
39.54	14.948
39.76	6.921
39.98	21.464
40.2	20.882
40.42	75.11
40.64	9.569
40.86	0.983
41.08	6.417
41.3	2.297
41.52	14.836
41.74	0.993
41.96	32.405
42.18	42.368
42.4	7.257
42.62	11.511
42.84	20.787
43.06	9.014
43.28	33.544
43.5	5.184
43.72	16.12
43.94	10.012
44.16	21.152
44.38	19.274
44.6	2.754
44.82	15.187
45.04	9.586
45.26	9.003
45.48	3.39
45.7	19.36
45.92	21.257
46.14	5.055
46.36	10.717
46.58	27.901
46.8	30.167
47.02	60.186
47.24	25.371
47.46	0.758
47.68	14.423
47.9	10.148
48.12	27.031
48.34	16.787
48.56	8.551
48.78	15.177
49	33.162
49.22	15.996
49.44	8.906
49.66	22.256
49.88	44.756
50.1	60.087
50.32	24.653
50.54	5.942
50.76	15.295
50.98	3.651
51.2	6.023
51.42	5.03
51.64	10.058
51.86	15.447
52.08	11.554
52.3	11.937
52.52	4.427
52.74	13.728
52.96	6.222
53.18	7.696
53.4	28.799
53.62	24.316
53.84	1.126
54.06	113.642
54.28	17.391
54.5	3.579
54.72	3.752
54.94	13.628
55.16	40.119
55.38	59.486
55.6	56.97
55.82	13.885
56.04	1.06
56.26	11.805
56.48	8.702
56.7	20.439
56.92	4.497
57.14	14.46
57.36	25.76
57.58	41.459
57.8	21.063
58.02	8.445
58.24	7.147
58.46	9.467
58.68	5.72
58.9	9.846
59.12	16.974
59.34	32.177
59.56	18.63
59.78	26.044
60	35.124
60.22	13.271
60.44	1.888
60.66	16.208
60.88	12.428
61.1	6.978
61.32	33.387
61.54	34.142
61.76	14.584
61.98	5.607
62.2	7.077
62.42	13.313
62.64	3.562
62.86	25.32
63.08	9.099
63.3	11.019
63.52	9.039
63.74	15.723
63.96	10.923
64.18	8.752
64.4	3.623
64.62	4.658
64.84	16.005
65.06	27.557
65.28	15.02
65.5	19.3
65.72	25.108
65.94	18.68
66.16	21.591
66.38	0.684
66.6	7.525
66.82	18.445
67.04	7.346
67.26	0.304
67.48	2.079
67.7	11.87
67.92	16.258
68.14	17.034
68.36	12.256
68.58	17.54
68.8	0.609
69.02	10.574
69.24	13.739
69.46	1.975
69.68	5.355
69.9	12.618
70.12	14.892
70.34	11.023
70.56	11.484
70.78	3.1
71	2.592
71.22	4.66
71.44	8.72
71.66	7.753
71.88	4.553
72.1	7.178
72.32	25.545
72.54	13.595
72.76	3.967
72.98	2.202
73.2	11.277
73.42	14.499
73.64	11.793
73.86	2.934
74.08	8.499
74.3	22.227
74.52	23.627
74.74	21.579
74.96	13.252
75.18	19.813
75.4	14.895
75.62	14.77
75.84	18.021
76.06	12.333
76.28	14.441
76.5	1.485
76.72	7.189
76.94	2.386
77.16	2.621
77.38	17.407
77.6	12.013
77.82	23.147
78.04	17.996
78.26	10.694
78.48	8.463
78.7	2.666
78.92	3.883
79.14	1.567
79.36	0.442
79.58	11.802
79.8	4.864
80.02	3.089
80.24	5.903
80.46	4.909
80.68	3.22
80.9	0.406
81.12	10.457
81.34	11.687
81.56	23.703
81.78	3.396
82	19.869
82.22	15.867
82.44	24.991
82.66	15.082
82.88	22.136
83.1	17.22
83.32	0.043
83.54	4.739
83.76	21.246
83.98	7.332
84.2	11.148
84.42	4.46
84.64	10.487
84.86	3.987
85.08	10.678
85.3	9.02
85.52	14.641
85.74	6.491
85.96	7.061
86.18	4.928
86.4	17.851
86.62	15.805
86.84	9.187
87.06	9.284
87.28	13.18
87.5	4.729
87.72	7.671
87.94	19.05
88.16	10.221
88.38	3.515
88.6	8.883
88.82	10.319
89.04	9.686
89.26	13.295
89.48	1.368
89.7	7.364
89.92	16.339
