Measurement: Powder, Xray Data XY Processed
Mineral: Awaruite
Rruff sample: R061020
Ideal chemistry: Ni_3_Fe
Locality: Oregon, USA
Source: Michael Scott
Description: Silver metallic massive pebbles with brownish-red oxidized coating, variety josephinite
Diffraction sample description: Powder, mixed with andradite: a:12.0607(4)
Measured chemistry: light phase: (Ni_2.60_Fe_0.40_)_Σ=3_(Fe_0.93_Co_0.07_)_Σ=1_ ; the rim (dark phase) is a Ni-Fe-silicate
Cell parameters: a: 3.5509(6) b: 3.5509(6) c: 3.5509(6) alpha: 90 beta: 90 gamma: 90 volume: 44.77(2) crystal system: cubic
x	intensity
5	0
5.22	10.1491
5.44	21.4218
5.66	21.5423
5.88	2.69674
6.1	9.42499
6.32	18.2465
6.54	30.9722
6.76	17.0308
6.98	8.97075
7.2	43.4343
7.42	15.8903
7.64	41.3173
7.86	13.0695
8.08	32.6433
8.3	17.106
8.52	13.2578
8.74	12.0276
8.96	25.975
9.18	29.1268
9.4	4.49788
9.62	6.48015
9.84	32.111
10.06	44.4785
10.28	11.6366
10.5	33.643
10.72	8.92755
10.94	14.2771
11.16	4.30606
11.38	8.13521
11.6	58.2274
11.82	27.6426
12.04	32.7845
12.26	56.6747
12.48	41.7255
12.7	11.0719
12.92	33.4621
13.14	12.5358
13.36	25.9726
13.58	9.40854
13.8	21.1169
14.02	8.39911
14.24	31.1215
14.46	16.5217
14.68	9.86194
14.9	40.7643
15.12	26.0077
15.34	37.6383
15.56	23.4123
15.78	18.919
16	5.8656
16.22	51.859
16.44	20.0323
16.66	22.9532
16.88	33.0394
17.1	9.16106
17.32	17.7335
17.54	45.0493
17.76	28.5157
17.98	39.2873
18.2	19.0963
18.42	38.8707
18.64	21.2502
18.86	13.5406
19.08	33.5974
19.3	4.85915
19.52	36.9385
19.74	9.88232
19.96	31.1193
20.18	21.6898
20.4	23.5996
20.62	0.79332
20.84	61.1688
21.06	6.28265
21.28	7.76241
21.5	28.5496
21.72	21.6716
21.94	8.97594
22.16	3.75996
22.38	15.5531
22.6	13.3695
22.82	15.6945
23.04	7.29855
23.26	43.9746
23.48	20.7706
23.7	2.3347
23.92	31.8349
24.14	30.1323
24.36	47.7363
24.58	58.387
24.8	55.5778
25.02	4.18446
25.24	9.38567
25.46	23.9686
25.68	29.9746
25.9	24.5705
26.12	7.91479
26.34	8.75177
26.56	19.2708
26.78	15.1836
27	30.714
27.22	35.9821
27.44	15.575
27.66	16.9281
27.88	12.9809
28.1	9.35107
28.32	33.9309
28.54	31.055
28.76	48.8179
28.98	22.4338
29.2	40.0806
29.42	11.4517
29.64	151.514
29.86	11.6053
30.08	9.70198
30.3	19.9605
30.52	20.6127
30.74	16.5281
30.96	20.8531
31.18	29.5872
31.4	6.37402
31.62	32.3106
31.84	32.9821
32.06	26.3877
32.28	17.5221
32.5	39.4727
32.72	15.4677
32.94	11.8497
33.16	31.6913
33.38	51.8191
33.6	11.545
33.82	18.1191
34.04	13.5944
34.26	26.6175
34.48	22.88
34.7	22.2963
34.92	33.6348
35.14	16.0276
35.36	26.7149
35.58	31.8132
35.8	12.4299
36.02	29.9928
36.24	45.2097
36.46	40.0556
36.68	1.27959
36.9	8.33067
37.12	20.1841
37.34	34.5192
37.56	7.24718
37.78	34.5597
38	9.80411
38.22	19.1735
38.44	8.91054
38.66	38.468
38.88	1.44835
39.1	40.5959
39.32	32.8376
39.54	53.6242
39.76	13.3435
39.98	32.0914
40.2	9.90045
40.42	12.2755
40.64	6.4899
40.86	16.3483
41.08	50.2271
41.3	38.252
41.52	1.16878
41.74	25.8634
41.96	24.0014
42.18	19.2444
42.4	21.227
42.62	26.916
42.84	6.9572
43.06	22.5034
43.28	3.72928
43.5	23.2703
43.72	21.9629
43.94	129.506
44.16	210.404
44.38	76.5319
44.6	19.0589
44.82	19.2018
45.04	9.28535
45.26	14.8899
45.48	6.69725
45.7	35.1383
45.92	17.1345
46.14	5.32015
46.36	38.8673
46.58	27.6105
46.8	19.3599
47.02	14.1725
47.24	1.22673
47.46	19.8769
47.68	24.3502
47.9	1.21565
48.12	23.416
48.34	27.393
48.56	0.406235
48.78	4.14424
49	2.00887
49.22	43.3972
49.44	21.2406
49.66	7.12578
49.88	9.6218
50.1	22.3613
50.32	26.9879
50.54	2.62549
50.76	29.1455
50.98	20.9029
51.2	79.8678
51.42	96.4627
51.64	34.5971
51.86	27.2316
52.08	3.00201
52.3	28.2295
52.52	26.3126
52.74	0.191177
52.96	20.0548
53.18	39.0455
53.4	21.9041
53.62	25.6643
53.84	16.5526
54.06	7.53278
54.28	12.1357
54.5	48.9909
54.72	14.5775
54.94	29.1951
55.16	24.2936
55.38	14.0914
55.6	10.2197
55.82	19.8944
56.04	8.01334
56.26	11.9828
56.48	6.86966
56.7	46.0924
56.92	17.0568
57.14	101.783
57.36	8.12715
57.58	22.9242
57.8	43.8414
58.02	27.1854
58.24	28.7924
58.46	16.4424
58.68	34.1605
58.9	21.8079
59.12	53.0396
59.34	27.6339
59.56	18.1294
59.78	1.75923
60	1.42049
60.22	32.6596
60.44	22.0085
60.66	21.7292
60.88	44.2617
61.1	46.3648
61.32	27.1334
61.54	26.8599
61.76	30.3932
61.98	36.4896
62.2	33.3008
62.42	8.41553
62.64	23.6218
62.86	34.4786
63.08	31.5785
63.3	8.33695
63.52	26.5385
63.74	1.56935
63.96	58.7438
64.18	25.1148
64.4	52.2912
64.62	27.3578
64.84	15.5512
65.06	34.8471
65.28	6.54952
65.5	19.6889
65.72	8.23636
65.94	5.19891
66.16	19.9664
66.38	38.9747
66.6	35.8653
66.82	17.5
67.04	20.4308
67.26	27.8105
67.48	31.6372
67.7	3.13869
67.92	30.69
68.14	35.0278
68.36	20.1471
68.58	46.4621
68.8	41.557
69.02	41.4054
69.24	48.6291
69.46	29.0693
69.68	42.7716
69.9	48.6006
70.12	30.8349
70.34	51.1669
70.56	7.55106
70.78	30.9026
71	40.9429
71.22	13.7234
71.44	19.43
71.66	41.1538
71.88	36.5814
72.1	44.9109
72.32	7.69507
72.54	21.3585
72.76	30.0433
72.98	34.8918
73.2	42.9063
73.42	35.8417
73.64	14.9261
73.86	23.3221
74.08	20.0728
74.3	24.0315
74.52	23.5637
74.74	37.5989
74.96	7.8828
75.18	18.3953
75.4	19.6301
75.62	54.3928
75.84	23.4288
76.06	23.0462
76.28	41.024
76.5	29.8931
76.72	2.53928
76.94	2.61262
77.16	7.21056
77.38	0.207718
77.6	55.7534
77.82	36.5023
78.04	24.8661
78.26	7.88445
78.48	7.90343
78.7	27.6288
78.92	8.07811
79.14	19.3075
79.36	46.0321
79.58	7.3597
79.8	42.1944
80.02	47.1329
80.24	12.813
80.46	3.58496
80.68	12.0551
80.9	37.4812
81.12	32.8574
81.34	3.34732
81.56	1.94562
81.78	1.74008
82	3.97249
82.22	2.08333
82.44	1.15764
82.66	23.4887
82.88	59.824
83.1	22.8639
83.32	4.89368
83.54	21.1692
83.76	6.32562
83.98	37.7924
84.2	34.4026
84.42	20.8698
84.64	26.8973
84.86	33.5935
85.08	46.2733
85.3	54.8007
85.52	22.14
85.74	19.2511
85.96	34.1165
86.18	15.41
86.4	26.5833
86.62	52.9513
86.84	51.3567
87.06	48.2148
87.28	30.6242
87.5	19.6363
87.72	12.6196
87.94	16.3299
88.16	14.5592
88.38	6.75133
88.6	31.5454
88.82	35.9148
89.04	16.7839
89.26	0.132874
89.48	35.5054
89.7	1.05048
89.92	5.5052
