Measurement: Powder, Xray Data XY Processed
Mineral: Axinite-(Mn)
Rruff sample: R050299
Ideal chemistry: Ca_4_Mn^2+^_2_Al_4_[B_2_Si_8_O_30_](OH)_2_
Locality: Dalnegorsk, Russia
Source: Eugene Schlepp
Description: Brown axe-head-shaped crystal
Diffraction sample description: Powder
Measured chemistry: Ca_2.00_(Mn_0.64_Fe^2+^_0.34_Mg_0.02_)Al_2.00_B_1.00_Si_4.00_O_15_(OH)
Cell parameters: a: 7.1792(9) b: 9.215(1) c: 8.9772(9) alpha: 91.79(2) beta: 98.12(1) gamma: 77.19(1) volume: 573.32(9) crystal system: triclinic
x	intensity
5	0
5.22	3.3192
5.44	11.9908
5.66	6.2492
5.88	11.5553
6.1	14.0625
6.32	26.0675
6.54	12.5895
6.76	12.6058
6.98	6.2058
7.2	15.7661
7.42	14.118
7.64	8.77926
7.86	2.57441
8.08	4.21349
8.3	15.1254
8.52	11.8459
8.74	12.2576
8.96	22.5177
9.18	18.3544
9.4	15.0907
9.62	8.17514
9.84	21.6855
10.06	8.5884
10.28	3.70215
10.5	10.1483
10.72	7.15717
10.94	3.8055
11.16	8.5489
11.38	3.5494
11.6	8.92446
11.82	0.73638
12.04	12.2892
12.26	5.71465
12.48	2.87676
12.7	7.29513
12.92	10.677
13.14	3.44976
13.36	6.65403
13.58	12.9083
13.8	8.21797
14.02	58.6978
14.24	12.8855
14.46	15.4203
14.68	4.06793
14.9	11.9959
15.12	10.4505
15.34	7.79231
15.56	7.3816
15.78	4.51271
16	14.446
16.22	24.2966
16.44	9.08056
16.66	18.1057
16.88	8.7859
17.1	9.82067
17.32	13.7966
17.54	9.73811
17.76	10.0803
17.98	1.29691
18.2	5.54575
18.42	6.79054
18.64	18.9713
18.86	9.23679
19.08	2.45186
19.3	11.7442
19.52	19.1898
19.74	15.3558
19.96	2.23866
20.18	8.96678
20.4	19.5819
20.62	10.0994
20.84	12.8741
21.06	2.98869
21.28	18.7644
21.5	0.423683
21.72	11.3412
21.94	11.7593
22.16	4.85447
22.38	15.0575
22.6	13.9711
22.82	1.05786
23.04	11.8787
23.26	13.8955
23.48	0.173241
23.7	2.70793
23.92	16.472
24.14	53.0846
24.36	9.8269
24.58	12.2816
24.8	5.79255
25.02	21.4332
25.24	6.26022
25.46	17.3826
25.68	61.2411
25.9	39.5799
26.12	21.72
26.34	11.3568
26.56	3.53388
26.78	12.3118
27	16.1078
27.22	20.8263
27.44	0.524263
27.66	13.4105
27.88	6.64472
28.1	8.15539
28.32	163.873
28.54	11.1565
28.76	18.9698
28.98	35.4158
29.2	1.88058
29.42	3.19486
29.64	107.836
29.86	66.4519
30.08	16.8748
30.3	9.18729
30.52	9.63427
30.74	3.28963
30.96	59.4092
31.18	39.6768
31.4	11.0817
31.62	36.3877
31.84	116.885
32.06	71.9638
32.28	9.17735
32.5	2.89257
32.72	15.1582
32.94	2.59028
33.16	0.298725
33.38	7.24845
33.6	8.47861
33.82	9.70846
34.04	20.3272
34.26	2.09441
34.48	0.180887
34.7	16.8202
34.92	24.1851
35.14	29.1142
35.36	10.1603
35.58	18.4263
35.8	1.02972
36.02	17.1123
36.24	22.1158
36.46	15.1811
36.68	0.402945
36.9	40.5785
37.12	27.3552
37.34	3.41839
37.56	17.9382
37.78	10.6456
38	15.7201
38.22	4.69367
38.44	0.002691
38.66	13.7991
38.88	14.814
39.1	2.92163
39.32	10.995
39.54	12.1021
39.76	0.405504
39.98	16.0352
40.2	8.56637
40.42	2.05481
40.64	18.5556
40.86	19.0079
41.08	10.9227
41.3	16.7305
41.52	24.9915
41.74	63.1349
41.96	26.2953
42.18	7.40216
42.4	24.0371
42.62	17.5401
42.84	18.8216
43.06	7.06142
43.28	13.6392
43.5	6.52504
43.72	1.59456
43.94	32.9296
44.16	5.23607
44.38	3.42534
44.6	29.7748
44.82	4.2404
45.04	35.4328
45.26	51.272
45.48	24.1844
45.7	20.9465
45.92	16.3562
46.14	0.65134
46.36	14.3085
46.58	15.6634
46.8	13.7505
47.02	3.27666
47.24	34.6003
47.46	15.9913
47.68	8.51392
47.9	14.6448
48.12	19.6747
48.34	13.6392
48.56	22.5656
48.78	8.27826
49	3.61462
49.22	6.1046
49.44	8.6883
49.66	11.7159
49.88	16.6463
50.1	18.2972
50.32	6.5392
50.54	14.5563
50.76	20.7288
50.98	16.3417
51.2	25.4803
51.42	9.01098
51.64	7.33208
51.86	8.30723
52.08	11.0543
52.3	17.6364
52.52	6.61434
52.74	8.38323
52.96	16.4329
53.18	14.2934
53.4	13.2594
53.62	3.34993
53.84	20.8846
54.06	4.69681
54.28	3.77737
54.5	7.80781
54.72	17.0415
54.94	6.26835
55.16	33.0085
55.38	3.67706
55.6	18.3997
55.82	3.571
56.04	1.42063
56.26	52.5558
56.48	10.2793
56.7	23.0608
56.92	8.96085
57.14	12.2536
57.36	11.9367
57.58	18.0497
57.8	2.33176
58.02	12.6032
58.24	2.72199
58.46	34.6143
58.68	12.4029
58.9	11.1038
59.12	5.73984
59.34	7.07411
59.56	3.28586
59.78	5.9472
60	13.5573
60.22	17.7391
60.44	37.8286
60.66	1.09024
60.88	12.2391
61.1	21.3526
61.32	12.9555
61.54	14.8813
61.76	2.73635
61.98	11.186
62.2	18.872
62.42	3.17967
62.64	7.01459
62.86	6.03385
63.08	3.45308
63.3	17.2019
63.52	12.435
63.74	18.2506
63.96	20.2251
64.18	12.6887
64.4	6.01634
64.62	2.4624
64.84	17.7621
65.06	16.7794
65.28	22.6757
65.5	0.850677
65.72	17.4987
65.94	21.1165
66.16	7.87893
66.38	8.18966
66.6	25.4033
66.82	24.0086
67.04	6.24225
67.26	7.47032
67.48	7.68919
67.7	0.212547
67.92	12.3037
68.14	6.94993
68.36	10.2881
68.58	4.62664
68.8	1.43956
69.02	12.3533
69.24	12.9953
69.46	14.5274
69.68	12.9284
69.9	10.7347
70.12	10.7312
70.34	0.811428
70.56	7.4955
70.78	11.4014
71	21.4536
71.22	4.47197
71.44	12.512
71.66	12.5536
71.88	6.66976
72.1	3.17842
72.32	17.9196
72.54	9.19284
72.76	8.40359
72.98	13.4376
73.2	6.5309
73.42	22.6456
73.64	5.81109
73.86	7.11607
74.08	10.0069
74.3	16.8055
74.52	10.6745
74.74	18.8141
74.96	14.7882
75.18	14.5423
75.4	4.08939
75.62	12.2504
75.84	7.95735
76.06	13.0634
76.28	2.11574
76.5	1.65419
76.72	6.24128
76.94	10.9851
77.16	7.8638
77.38	21.8059
77.6	12.6361
77.82	13.1953
78.04	14.9434
78.26	8.62073
78.48	4.71852
78.7	9.61465
78.92	11.4581
79.14	7.06045
79.36	10.2234
79.58	8.39271
79.8	5.48043
80.02	4.6035
80.24	5.63374
80.46	7.60757
80.68	13.3513
80.9	9.22308
81.12	10.3662
81.34	10.0637
81.56	8.91059
81.78	8.84489
82	5.07349
82.22	15.0398
82.44	9.00414
82.66	16.335
82.88	2.46645
83.1	10.8546
83.32	8.89811
83.54	16.175
83.76	6.27139
83.98	5.00479
84.2	9.94056
84.42	13.6738
84.64	6.70417
84.86	9.60011
85.08	7.4064
85.3	6.73538
85.52	11.7358
85.74	13.7697
85.96	8.01475
86.18	12.4134
86.4	14.431
86.62	1.51112
86.84	2.52503
87.06	4.38463
87.28	6.33238
87.5	7.8395
87.72	7.78762
87.94	5.36933
88.16	11.9839
88.38	5.69248
88.6	8.34824
88.82	10.689
89.04	23.0442
89.26	20.1516
89.48	20.5991
89.7	0.912683
89.92	16.7248
