Measurement: Powder, Xray Data XY Processed
Mineral: Axinite-(Fe)
Rruff sample: R060194
Ideal chemistry: Ca_4_Fe^2+^_2_Al_4_[B_2_Si_8_O_30_](OH)_2_
Locality: near Dalbandi, Baluchistan Province, Pakistan
Source: Herbert Obodda
Description: Brown transparent wedge-shaped single crystal
Diffraction sample description: Powder
Measured chemistry: Ca_2.00_(Fe^2+^_0.66_Mg_0.30_Mn_0.04_)Al_2.00_BSi_4.00_O_15_(OH)
Cell parameters: a: 7.151(1) b: 9.189(1) c: 8.960(5) alpha: 91.88(2) beta: 98.25(3) gamma: 77.30(2) volume: 568.4(0) crystal system: triclinic
x	intensity
5	0
5.22	12.804
5.44	13.17
5.66	8.828
5.88	10.246
6.1	6.035
6.32	0.164
6.54	3.021
6.76	9.569
6.98	9.859
7.2	8.495
7.42	2.708
7.64	1.199
7.86	6.756
8.08	8.513
8.3	2.699
8.52	7.049
8.74	7.536
8.96	11.898
9.18	11.981
9.4	6.344
9.62	0.596
9.84	14.327
10.06	5.474
10.28	11.599
10.5	8.483
10.72	5.404
10.94	3.042
11.16	2.139
11.38	3.248
11.6	11.283
11.82	11.466
12.04	9.481
12.26	7.409
12.48	7.702
12.7	8.983
12.92	4.998
13.14	5.958
13.36	10.016
13.58	13.008
13.8	2
14.02	9.043
14.24	13.883
14.46	7.648
14.68	6.461
14.9	10.286
15.12	1.712
15.34	6.346
15.56	1.617
15.78	7.639
16	8.701
16.22	6.488
16.44	8.414
16.66	3.519
16.88	1.879
17.1	13.646
17.32	1.537
17.54	3.571
17.76	10.688
17.98	8.423
18.2	11.882
18.42	8.268
18.64	5.31
18.86	5.605
19.08	5.782
19.3	8.461
19.52	14.443
19.74	2.318
19.96	5.472
20.18	12.248
20.4	2.08
20.62	1.783
20.84	3.635
21.06	6.681
21.28	4.477
21.5	4.227
21.72	4.697
21.94	0.704
22.16	3.297
22.38	15.457
22.6	1.361
22.82	8.046
23.04	4.945
23.26	14.796
23.48	9.018
23.7	9.017
23.92	11.602
24.14	10.288
24.36	14.489
24.58	3.296
24.8	1.914
25.02	10.617
25.24	16.115
25.46	13.167
25.68	15.124
25.9	76.408
26.12	18.26
26.34	7.084
26.56	11.102
26.78	3.592
27	10.389
27.22	30.238
27.44	4.1
27.66	4.302
27.88	12.057
28.1	10.04
28.32	42.933
28.54	17.756
28.76	11.315
28.98	10.849
29.2	3.401
29.42	0.371
29.64	15.366
29.86	25.244
30.08	18.429
30.3	18.076
30.52	9.349
30.74	1.006
30.96	18.957
31.18	4.026
31.4	13.37
31.62	14.861
31.84	20.182
32.06	94.769
32.28	28.804
32.5	8.448
32.72	3.441
32.94	6.742
33.16	0.994
33.38	14.129
33.6	14.294
33.82	10.112
34.04	14.694
34.26	23.174
34.48	7.637
34.7	2.491
34.92	11.639
35.14	27.662
35.36	10.814
35.58	6.12
35.8	8.344
36.02	0.25
36.24	7.422
36.46	11.791
36.68	12.143
36.9	21.406
37.12	4.105
37.34	26.152
37.56	17.267
37.78	7.287
38	1.178
38.22	13.857
38.44	9.673
38.66	5.52
38.88	3.33
39.1	6.13
39.32	9.069
39.54	16.32
39.76	5.776
39.98	9.625
40.2	0.519
40.42	0.284
40.64	13.329
40.86	17.042
41.08	16.081
41.3	19.432
41.52	10.406
41.74	15.456
41.96	24.233
42.18	11.387
42.4	0.621
42.62	14.401
42.84	12.558
43.06	9.503
43.28	7.581
43.5	10.88
43.72	2.471
43.94	2.057
44.16	16.61
44.38	17.324
44.6	14.055
44.82	0.928
45.04	18.249
45.26	10.38
45.48	19.688
45.7	16.732
45.92	3.489
46.14	0.806
46.36	1.102
46.58	21.416
46.8	4.899
47.02	2.212
47.24	16.243
47.46	13.533
47.68	10.615
47.9	2.652
48.12	9.103
48.34	13.801
48.56	3.039
48.78	4.71
49	2.977
49.22	6.115
49.44	5.398
49.66	4.504
49.88	11.275
50.1	11.053
50.32	11.83
50.54	13.36
50.76	0.049
50.98	4.732
51.2	8.397
51.42	0.064
51.64	13.781
51.86	0.475
52.08	4.269
52.3	11.968
52.52	4.898
52.74	11.567
52.96	9.808
53.18	11.85
53.4	9.624
53.62	8.57
53.84	9.266
54.06	9.915
54.28	12.623
54.5	2.997
54.72	16.688
54.94	0.938
55.16	8.268
55.38	8.718
55.6	2.098
55.82	12.62
56.04	6.577
56.26	14.804
56.48	19.682
56.7	19.641
56.92	15.007
57.14	3.086
57.36	3.091
57.58	18.296
57.8	11.689
58.02	18.288
58.24	6.355
58.46	16.513
58.68	1.175
58.9	2.744
59.12	8.034
59.34	8.263
59.56	4.856
59.78	6.968
60	0.946
60.22	14.86
60.44	5.718
60.66	15.008
60.88	2.846
61.1	10.806
61.32	6.414
61.54	13.322
61.76	6.612
61.98	7.452
62.2	18.507
62.42	10.581
62.64	4.004
62.86	7.89
63.08	20.908
63.3	12.811
63.52	13.81
63.74	7.035
63.96	18.723
64.18	6.616
64.4	0.253
64.62	9.002
64.84	7.935
65.06	7.839
65.28	3.819
65.5	3.271
65.72	10.412
65.94	5.002
66.16	2.84
66.38	4.97
66.6	9.897
66.82	8.371
67.04	5.535
67.26	2.283
67.48	3.066
67.7	3.031
67.92	9.381
68.14	2.484
68.36	15.492
68.58	3.438
68.8	11.296
69.02	18.374
69.24	5.561
69.46	13.632
69.68	11.343
69.9	8.508
70.12	15.593
70.34	4.516
70.56	12.613
70.78	0.042
71	12.053
71.22	17.128
71.44	22.428
71.66	10.558
71.88	12.64
72.1	16.229
72.32	0.335
72.54	9.486
72.76	6.516
72.98	12.604
73.2	4.906
73.42	4.791
73.64	2.843
73.86	11.62
74.08	15.312
74.3	18.277
74.52	6.289
74.74	12.75
74.96	7.64
75.18	11.611
75.4	9.17
75.62	13.779
75.84	8.782
76.06	5.68
76.28	6.582
76.5	4.316
76.72	0.405
76.94	5.427
77.16	7.775
77.38	3.092
77.6	7.968
77.82	15.448
78.04	0.353
78.26	12.915
78.48	15.132
78.7	11.525
78.92	6.948
79.14	11.478
79.36	10.649
79.58	3.266
79.8	2.25
80.02	0.113
80.24	13.136
80.46	0.309
80.68	8.886
80.9	13.581
81.12	6.577
81.34	11.085
81.56	5.681
81.78	25.391
82	4.958
82.22	17.601
82.44	8.912
82.66	2.887
82.88	1.852
83.1	6.736
83.32	10.925
83.54	7.427
83.76	12.427
83.98	10.367
84.2	17.474
84.42	0.029
84.64	5.108
84.86	7.124
85.08	6.875
85.3	25.833
85.52	6.794
85.74	3.646
85.96	11.724
86.18	4.734
86.4	4.807
86.62	11.528
86.84	0.838
87.06	4.536
87.28	17.723
87.5	11.841
87.72	13.83
87.94	20.155
88.16	18.17
88.38	9.611
88.6	12.693
88.82	11.754
89.04	15.049
89.26	14.501
89.48	7.717
89.7	4.4
89.92	10.44
