Measurement: Powder, Xray Data XY Processed
Mineral: Axinite-(Mn)
Rruff sample: R061121
Ideal chemistry: Ca_4_Mn^2+^_2_Al_4_[B_2_Si_8_O_30_](OH)_2_
Locality: Franklin, Sussex County, New Jersey, USA
Source: Michael Scott
Description: Honey-yellow massive associated with pink rhodonite
Diffraction sample description: Powder
Measured chemistry: (Ca_1.93_Mn_0.07_)_Σ=2_(Mn^2+^_0.87_Zn_0.08_Fe^2+^_0.05_)_Σ=1_(Al_1.95_Fe^3+^_0.05_)_Σ=2_BSi_4.00_O_15_(OH); OH and B assumed by stoichiometry
Cell parameters: a: 7.1745(8) b: 9.207(1) c: 8.973(1) alpha: 91.77(1) beta: 98.20(1) gamma: 77.14(1) volume: 571.94(8) crystal system: triclinic
x	intensity
5	0
5.22	9.7386
5.44	13.4023
5.66	4.68887
5.88	1.74819
6.1	10.9409
6.32	14.3244
6.54	3.61803
6.76	9.32416
6.98	16.8905
7.2	10.368
7.42	10.891
7.64	5.39177
7.86	5.96062
8.08	5.5782
8.3	6.33956
8.52	1.84434
8.74	5.04526
8.96	10.3467
9.18	7.04283
9.4	12.2386
9.62	5.41688
9.84	1.36447
10.06	11.8794
10.28	8.23524
10.5	5.20885
10.72	6.14684
10.94	10.3471
11.16	14.5481
11.38	4.54188
11.6	6.00001
11.82	4.28967
12.04	1.37532
12.26	6.42332
12.48	11.23
12.7	14.0417
12.92	2.06837
13.14	0.053308
13.36	9.78466
13.58	10.8181
13.8	0.157612
14.02	35.7946
14.24	1.75809
14.46	7.03918
14.68	6.40412
14.9	7.57612
15.12	10.6389
15.34	8.78134
15.56	9.71931
15.78	0.067962
16	19.7946
16.22	0.247059
16.44	10.7299
16.66	7.91512
16.88	4.68763
17.1	2.44808
17.32	15.2863
17.54	2.52285
17.76	0.955039
17.98	8.2645
18.2	3.61303
18.42	3.88346
18.64	16.1307
18.86	5.3586
19.08	18.5129
19.3	13.7104
19.52	19.849
19.74	12.9909
19.96	3.99531
20.18	8.65927
20.4	14.0245
20.62	12.8398
20.84	13.8608
21.06	20.6587
21.28	5.58578
21.5	11.3228
21.72	8.15668
21.94	1.79106
22.16	5.7884
22.38	3.7683
22.6	9.77355
22.82	3.88257
23.04	13.9505
23.26	9.90752
23.48	2.51943
23.7	9.4446
23.92	0.429325
24.14	29.828
24.36	14.2103
24.58	15.0635
24.8	0.217216
25.02	12.8001
25.24	3.80077
25.46	13.6319
25.68	62.3308
25.9	30.4718
26.12	22.1975
26.34	10.6447
26.56	7.34434
26.78	2.92617
27	1.86549
27.22	17.7542
27.44	3.7214
27.66	1.21777
27.88	3.8396
28.1	14.2744
28.32	113.9
28.54	9.56516
28.76	4.02783
28.98	13.4933
29.2	10.4879
29.42	3.30239
29.64	31.3343
29.86	32.7717
30.08	23.6609
30.3	6.18161
30.52	19.9517
30.74	0.378635
30.96	25.7313
31.18	10.1794
31.4	7.75225
31.62	8.48978
31.84	112.709
32.06	39.273
32.28	2.78249
32.5	14.0952
32.72	4.8625
32.94	5.11698
33.16	0.425505
33.38	11.5984
33.6	13.4304
33.82	24.1683
34.04	15.8968
34.26	11.9208
34.48	3.35688
34.7	12.4078
34.92	9.67503
35.14	24.5355
35.36	9.81648
35.58	2.29004
35.8	8.55496
36.02	9.82425
36.24	4.7055
36.46	14.6628
36.68	0.624018
36.9	16.5787
37.12	12.6121
37.34	17.3962
37.56	10.0791
37.78	5.85151
38	15.359
38.22	9.73613
38.44	1.83393
38.66	9.12285
38.88	5.64444
39.1	1.49309
39.32	1.39499
39.54	2.2138
39.76	6.98458
39.98	9.10036
40.2	5.7005
40.42	5.90055
40.64	17.1583
40.86	17.8582
41.08	4.90951
41.3	20.3623
41.52	9.38731
41.74	37.9022
41.96	16.4369
42.18	5.6736
42.4	8.1381
42.62	2.91977
42.84	12.1666
43.06	11.5699
43.28	9.15686
43.5	9.87905
43.72	3.71979
43.94	8.52209
44.16	11.8209
44.38	9.17462
44.6	12.7528
44.82	3.15347
45.04	20.8676
45.26	12.0495
45.48	18.6956
45.7	23.5435
45.92	1.96396
46.14	0.655573
46.36	12.7972
46.58	7.70357
46.8	4.46364
47.02	8.48453
47.24	13.066
47.46	8.63726
47.68	9.96918
47.9	8.53284
48.12	5.95463
48.34	16.9761
48.56	4.24064
48.78	9.09675
49	17.9379
49.22	15.7835
49.44	6.17363
49.66	0.975734
49.88	4.75715
50.1	5.32734
50.32	5.96617
50.54	16.6421
50.76	0.705116
50.98	6.34976
51.2	17.1127
51.42	15.1508
51.64	6.83177
51.86	4.93344
52.08	5.60294
52.3	4.5239
52.52	5.63613
52.74	7.48744
52.96	17.4588
53.18	14.1934
53.4	3.41731
53.62	2.51648
53.84	8.11729
54.06	15.0049
54.28	2.75057
54.5	3.45572
54.72	10.8149
54.94	6.64321
55.16	7.37339
55.38	5.92967
55.6	9.64633
55.82	4.74312
56.04	4.46372
56.26	17.1935
56.48	9.19386
56.7	12.2393
56.92	9.36539
57.14	9.53154
57.36	17.4901
57.58	8.7307
57.8	6.57931
58.02	0.092773
58.24	5.63504
58.46	15.2324
58.68	4.76787
58.9	7.32175
59.12	3.45609
59.34	0.606758
59.56	2.34305
59.78	2.38551
60	0.371777
60.22	11.8733
60.44	10.8913
60.66	0.936991
60.88	20.545
61.1	9.19076
61.32	7.99768
61.54	8.35334
61.76	8.28449
61.98	14.5191
62.2	13.7913
62.42	2.01938
62.64	1.98659
62.86	3.92214
63.08	1.91705
63.3	15.2172
63.52	15.6273
63.74	12.3859
63.96	15.2316
64.18	0.845606
64.4	11.6449
64.62	5.3686
64.84	7.36535
65.06	2.77402
65.28	3.10313
65.5	20.0019
65.72	2.217
65.94	2.80877
66.16	5.94194
66.38	8.37976
66.6	19.0739
66.82	8.36991
67.04	15.4597
67.26	10.0961
67.48	6.49771
67.7	12.7911
67.92	11.0872
68.14	12.9177
68.36	0.028354
68.58	11.3011
68.8	6.57508
69.02	15.2602
69.24	14.7804
69.46	14.6252
69.68	13.0963
69.9	8.5941
70.12	0.54949
70.34	3.27508
70.56	11.1053
70.78	2.91662
71	3.03334
71.22	4.99369
71.44	6.06558
71.66	7.54326
71.88	5.62471
72.1	2.68068
72.32	8.32078
72.54	10.5756
72.76	2.34581
72.98	3.87914
73.2	10.1987
73.42	16.2995
73.64	5.74721
73.86	7.86074
74.08	12.9617
74.3	6.3646
74.52	18.4674
74.74	15.7145
74.96	10.7652
75.18	7.87878
75.4	4.04301
75.62	8.51069
75.84	5.35532
76.06	10.2542
76.28	5.19989
76.5	13.1332
76.72	7.80193
76.94	5.95983
77.16	10.2943
77.38	10.1548
77.6	5.01368
77.82	8.90721
78.04	4.54193
78.26	7.64041
78.48	6.53922
78.7	9.716
78.92	21.1775
79.14	5.10212
79.36	0.403227
79.58	9.74831
79.8	17.1899
80.02	4.29678
80.24	11.689
80.46	8.57354
80.68	3.30464
80.9	7.56069
81.12	9.44325
81.34	1.9368
81.56	1.59019
81.78	6.50136
82	4.11488
82.22	6.88397
82.44	4.89944
82.66	0.484194
82.88	2.43368
83.1	12.8418
83.32	9.48873
83.54	11.426
83.76	1.42962
83.98	9.46109
84.2	6.4706
84.42	2.92534
84.64	1.86878
84.86	15.9557
85.08	8.11392
85.3	3.17996
85.52	6.78224
85.74	2.86162
85.96	6.58801
86.18	12.6582
86.4	7.72045
86.62	16.7248
86.84	14.4048
87.06	7.03602
87.28	10.972
87.5	5.93676
87.72	2.03343
87.94	13.1229
88.16	5.21615
88.38	6.96495
88.6	16.1802
88.82	4.21582
89.04	9.38255
89.26	12.924
89.48	12.2369
89.7	16.8855
89.92	0.641813
