Measurement: Powder, Xray Data XY Processed
Mineral: Azurite
Rruff sample: R050497
Ideal chemistry: Cu^2+^_3_(CO_3_)_2_(OH)_2_
Locality: Tsumeb mine, Tsumeb, Otavi District, Oshikoto, Namibia
Source: Marcus Origlieri
Description: Blue prismatic single crystal
Diffraction sample description: Powder
Measured chemistry: Cu_3.00_(CO_3_)_2_(OH)_2_
Cell parameters: a: 5.0095(2) b: 5.8455(2) c: 10.3441(5) alpha: 90. beta: 92.420(3) gamma: 90. volume: 302.64(1) crystal system: monoclinic
x	intensity
5	0
5.22	15.4852
5.44	9.86812
5.66	27.4111
5.88	3.40274
6.1	8.77746
6.32	12.0139
6.54	19.1486
6.76	22.8823
6.98	9.54128
7.2	7.1166
7.42	25.9918
7.64	6.85992
7.86	13.2305
8.08	19.5533
8.3	10.2135
8.52	19.6204
8.74	26.6709
8.96	12.0141
9.18	12.2799
9.4	16.76
9.62	18.8976
9.84	4.8514
10.06	12.0249
10.28	13.0348
10.5	7.63755
10.72	17.8226
10.94	10.5995
11.16	4.84102
11.38	11.6964
11.6	7.09813
11.82	29.1225
12.04	20.603
12.26	32.8591
12.48	23.3976
12.7	32.9964
12.92	27.9169
13.14	12.7788
13.36	18.0321
13.58	16.7012
13.8	16.6508
14.02	23.4305
14.24	11.1815
14.46	13.7649
14.68	15.7348
14.9	9.49541
15.12	22.8081
15.34	8.72808
15.56	6.70944
15.78	29.1898
16	0.246414
16.22	7.09972
16.44	24.5002
16.66	18.735
16.88	8.93771
17.1	45.4004
17.32	41.5648
17.54	78.5218
17.76	157.574
17.98	21.1461
18.2	2.6419
18.42	21.9259
18.64	10.279
18.86	31.5666
19.08	7.86597
19.3	8.93742
19.52	1.08566
19.74	1.38031
19.96	0.402237
20.18	18.9861
20.4	14.1859
20.62	11.1171
20.84	34.5945
21.06	27.327
21.28	1.33345
21.5	0.98838
21.72	18.6642
21.94	10.4582
22.16	5.3613
22.38	14.0485
22.6	21.3052
22.82	10.3389
23.04	43.935
23.26	4.74998
23.48	72.5497
23.7	1.39592
23.92	6.80285
24.14	36.9328
24.36	28.9783
24.58	20.3305
24.8	8.5452
25.02	14.3454
25.24	1014.33
25.46	29.9619
25.68	4.65874
25.9	7.99901
26.12	12.1187
26.34	20.0495
26.56	16.0907
26.78	11.0133
27	13.0059
27.22	8.69461
27.44	11.7111
27.66	5.4406
27.88	1.91426
28.1	10.2483
28.32	16.5884
28.54	21.2059
28.76	35.287
28.98	15.311
29.2	34.4006
29.42	23.6119
29.64	8.29121
29.86	17.3555
30.08	16.4177
30.3	24.2745
30.52	9.51329
30.74	25.762
30.96	63.0523
31.18	21.1178
31.4	7.64867
31.62	1.48424
31.84	129.208
32.06	26.1166
32.28	0.550758
32.5	12.9745
32.72	18.6634
32.94	13.6955
33.16	2.31178
33.38	27.382
33.6	20.4725
33.82	9.39123
34.04	23.474
34.26	2.18738
34.48	18.9083
34.7	30.2338
34.92	16.7278
35.14	15.1732
35.36	187.876
35.58	254.159
35.8	97.6094
36.02	7.01917
36.24	0.229576
36.46	24.2156
36.68	9.39864
36.9	12.4159
37.12	15.1988
37.34	11.4333
37.56	10.2019
37.78	25.307
38	16.4774
38.22	16.8138
38.44	24.6558
38.66	116.085
38.88	7.18683
39.1	28.2944
39.32	27.8415
39.54	47.5037
39.76	41.3185
39.98	18.0485
40.2	62.8571
40.42	12.8655
40.64	42.2919
40.86	14.5014
41.08	21.1845
41.3	27.2261
41.52	11.6374
41.74	57.1775
41.96	12.3459
42.18	5.57226
42.4	10.8801
42.62	16.756
42.84	5.11514
43.06	36.569
43.28	4.60601
43.5	19.823
43.72	7.90458
43.94	24.3626
44.16	19.108
44.38	12.8078
44.6	17.8252
44.82	16.5207
45.04	12.6227
45.26	10.5038
45.48	28.9499
45.7	0.394295
45.92	2.40511
46.14	13.5347
46.36	22.8992
46.58	130.098
46.8	14.2451
47.02	24.5729
47.24	5.86327
47.46	18.4546
47.68	10.7473
47.9	38.0796
48.12	7.04923
48.34	9.71757
48.56	13.5783
48.78	17.3609
49	9.40813
49.22	5.62501
49.44	19.3883
49.66	5.29942
49.88	12.2783
50.1	86.0353
50.32	8.83718
50.54	4.08261
50.76	17.4829
50.98	77.5111
51.2	150.749
51.42	8.46351
51.64	18.8175
51.86	10.0099
52.08	30.3936
52.3	8.03864
52.52	1.16441
52.74	25.0974
52.96	34.9606
53.18	14.876
53.4	16.3156
53.62	8.90077
53.84	7.44137
54.06	184.664
54.28	16.5043
54.5	15.5929
54.72	13.3579
54.94	14.3276
55.16	15.5965
55.38	8.04592
55.6	24.2223
55.82	10.2113
56.04	24.1747
56.26	20.1126
56.48	31.3782
56.7	12.6921
56.92	20.9923
57.14	8.76726
57.36	15.9566
57.58	19.3992
57.8	58.2291
58.02	27.928
58.24	20.1272
58.46	5.73898
58.68	12.9939
58.9	50.0377
59.12	15.0969
59.34	18.5985
59.56	31.8205
59.78	17.926
60	11.5707
60.22	13.4528
60.44	6.19459
60.66	75.09
60.88	21.3715
61.1	18.9828
61.32	72.5662
61.54	25.3668
61.76	3.08549
61.98	6.7772
62.2	11.8147
62.42	10.5754
62.64	28.8149
62.86	48.8016
63.08	22.4617
63.3	22.2548
63.52	24.8143
63.74	21.9631
63.96	12.6054
64.18	3.10648
64.4	15.7255
64.62	20.7664
64.84	18.1375
65.06	10.9597
65.28	45.3094
65.5	2.91883
65.72	12.0258
65.94	32.3136
66.16	22.1536
66.38	24.2329
66.6	21.5243
66.82	2.50786
67.04	2.88698
67.26	78.9063
67.48	37.807
67.7	8.56071
67.92	4.76354
68.14	27.7138
68.36	15.7513
68.58	12.1901
68.8	32.4211
69.02	10.5214
69.24	20.2385
69.46	7.54266
69.68	12.3454
69.9	17.2207
70.12	15.4345
70.34	7.14547
70.56	27.7416
70.78	6.33164
71	0.375824
71.22	4.90781
71.44	23.5221
71.66	0.97673
71.88	23.2214
72.1	12.2055
72.32	3.53863
72.54	9.51715
72.76	1.08994
72.98	15.8532
73.2	35.5893
73.42	9.5627
73.64	17.1984
73.86	17.9632
74.08	22.4613
74.3	18.9712
74.52	26.8288
74.74	13.6747
74.96	29.4486
75.18	17.9855
75.4	17.0211
75.62	34.5111
75.84	22.253
76.06	9.61714
76.28	13.421
76.5	14.6527
76.72	27.8276
76.94	43.41
77.16	22.8612
77.38	17.4548
77.6	6.36128
77.82	5.03214
78.04	8.76879
78.26	40.9474
78.48	33.8962
78.7	12.6204
78.92	14.5633
79.14	9.53877
79.36	19.2015
79.58	25.0947
79.8	36.6021
80.02	6.79679
80.24	9.93413
80.46	12.5544
80.68	9.87489
80.9	10.0775
81.12	21.8357
81.34	29.3791
81.56	19.4918
81.78	12.5609
82	20.6475
82.22	19.3007
82.44	14.1297
82.66	31.2096
82.88	19.2655
83.1	24.8761
83.32	20.2089
83.54	19.266
83.76	21.7339
83.98	14.4455
84.2	23.3221
84.42	31.2061
84.64	15.5479
84.86	25.9237
85.08	18.8205
85.3	49.0217
85.52	3.30362
85.74	6.46958
85.96	8.98725
86.18	22.0333
86.4	9.57818
86.62	20.9422
86.84	4.95297
87.06	4.57279
87.28	11.7542
87.5	25.9128
87.72	2.0959
87.94	18.9532
88.16	15.0941
88.38	8.49166
88.6	13.1695
88.82	12.2629
89.04	9.52713
89.26	39.7884
89.48	26.5868
89.7	16.4398
89.92	0.961998
