Measurement: Powder, Xray Data XY Processed
Mineral: Babingtonite
Rruff sample: R060084
Ideal chemistry: Ca_2_Fe^2+^Fe^3+^Si_5_O_14_(OH)
Locality: Winchester Highlands, Massachusetts, USA
Source: University of Arizona Mineral Museum
Description: Black stubby prismatic crystals
Diffraction sample description: Powder
Measured chemistry: Ca_2.00_(Fe^2+^_0.89_Mg_0.07_Mn_0.04_)(Fe^3+^_0.96_Al_0.04_)Si_5.00_O_14_(OH)
Cell parameters: a: 7.4662(7) b: 11.631(1) c: 6.684(1) alpha: 91.64(2) beta: 93.92(1) gamma: 104.14(2) volume: 560.96(8) crystal system: triclinic
x	intensity
5	0
5.22	14.003
5.44	16.813
5.66	1.713
5.88	14.638
6.1	8.372
6.32	12.789
6.54	30.153
6.76	2.644
6.98	5.094
7.2	6.069
7.42	10.476
7.64	3.664
7.86	37.568
8.08	16.994
8.3	21.142
8.52	14.133
8.74	4.264
8.96	12.054
9.18	30.172
9.4	18.977
9.62	12.674
9.84	29.161
10.06	15.319
10.28	8.675
10.5	5.793
10.72	23.655
10.94	15.1
11.16	18.151
11.38	4.52
11.6	5.881
11.82	5.914
12.04	11.202
12.26	34.746
12.48	9.801
12.7	5.933
12.92	27.093
13.14	30.882
13.36	54.898
13.58	16.189
13.8	22.404
14.02	21.689
14.24	18.82
14.46	13.477
14.68	21.188
14.9	10.194
15.12	6.298
15.34	9.013
15.56	6.02
15.78	9.402
16	11.392
16.22	17.488
16.44	7.44
16.66	22.562
16.88	14.599
17.1	18.081
17.32	10.601
17.54	4.502
17.76	27.099
17.98	5.002
18.2	11.873
18.42	21.247
18.64	17.394
18.86	29.619
19.08	5.833
19.3	19.315
19.52	7.105
19.74	24.567
19.96	14.39
20.18	41.385
20.4	13.553
20.62	1.731
20.84	11.684
21.06	1.331
21.28	12.264
21.5	19.174
21.72	27.776
21.94	18.265
22.16	3.212
22.38	0.484
22.6	3.614
22.82	13.397
23.04	1.235
23.26	16.536
23.48	21.813
23.7	24.656
23.92	36.864
24.14	12.701
24.36	10.569
24.58	7.449
24.8	17
25.02	1.515
25.24	13.135
25.46	5.496
25.68	16.092
25.9	34.115
26.12	11.901
26.34	4.188
26.56	6.347
26.78	46.989
27	14.72
27.22	31.437
27.44	14.964
27.66	19.262
27.88	16.036
28.1	15.569
28.32	24.729
28.54	34.775
28.76	43.657
28.98	4.054
29.2	16.808
29.42	13.641
29.64	37.141
29.86	29.761
30.08	24.823
30.3	194.071
30.52	24.418
30.74	7.815
30.96	26.744
31.18	46.471
31.4	16.805
31.62	18.835
31.84	13.022
32.06	6.622
32.28	4.963
32.5	38.058
32.72	50.714
32.94	6.245
33.16	19.035
33.38	11.257
33.6	11.302
33.82	13.343
34.04	10.286
34.26	18.511
34.48	14.942
34.7	23.863
34.92	14.299
35.14	27.902
35.36	33.889
35.58	18.85
35.8	20.717
36.02	24.462
36.24	35.505
36.46	46.78
36.68	28.51
36.9	48.52
37.12	26.281
37.34	12.673
37.56	10.939
37.78	13.011
38	18.374
38.22	22.707
38.44	10.527
38.66	13.71
38.88	4.101
39.1	22.118
39.32	6.612
39.54	22.591
39.76	22.862
39.98	6.395
40.2	29.685
40.42	14.258
40.64	12.956
40.86	15.727
41.08	31.723
41.3	10.977
41.52	30.386
41.74	34.623
41.96	16.323
42.18	4.644
42.4	7.889
42.62	20.609
42.84	19.528
43.06	12.395
43.28	20.147
43.5	14.267
43.72	14.745
43.94	29.995
44.16	28.346
44.38	7.006
44.6	10.711
44.82	33.403
45.04	7.9
45.26	4.484
45.48	14.357
45.7	19.765
45.92	5.157
46.14	15.023
46.36	21.011
46.58	2.703
46.8	9.536
47.02	9.712
47.24	5.943
47.46	13.929
47.68	23.024
47.9	24.296
48.12	10.351
48.34	26.048
48.56	2.203
48.78	17.754
49	12.492
49.22	22.096
49.44	13.177
49.66	0.166
49.88	4.163
50.1	20.889
50.32	8.931
50.54	32.683
50.76	7.107
50.98	11.941
51.2	9.354
51.42	14.103
51.64	4.555
51.86	21.093
52.08	5.667
52.3	26.017
52.52	1.882
52.74	22.966
52.96	33.675
53.18	8
53.4	16.42
53.62	12.555
53.84	10.716
54.06	12.641
54.28	2.082
54.5	10.268
54.72	22.583
54.94	15.175
55.16	14.83
55.38	20.219
55.6	11.037
55.82	10.122
56.04	38.716
56.26	12.967
56.48	1.109
56.7	8.134
56.92	10.266
57.14	21.32
57.36	16.074
57.58	13.422
57.8	10.85
58.02	12.039
58.24	4.936
58.46	25.308
58.68	26.406
58.9	1.655
59.12	24.849
59.34	27.78
59.56	20.89
59.78	5.221
60	18.895
60.22	25.97
60.44	10.985
60.66	6.394
60.88	7.526
61.1	11.879
61.32	11.381
61.54	21.541
61.76	17.487
61.98	12.193
62.2	9.441
62.42	9.605
62.64	17.779
62.86	7.06
63.08	22.396
63.3	1.104
63.52	7.279
63.74	15.583
63.96	15.276
64.18	3.475
64.4	32.534
64.62	10.967
64.84	4.896
65.06	16.489
65.28	23.652
65.5	25.319
65.72	6.49
65.94	23.824
66.16	3.182
66.38	11.342
66.6	12.139
66.82	12.329
67.04	22.843
67.26	35.158
67.48	7.048
67.7	2.598
67.92	5.36
68.14	19.129
68.36	15.356
68.58	21.45
68.8	16.611
69.02	33.072
69.24	16.518
69.46	12.512
69.68	19.617
69.9	3.992
70.12	15.943
70.34	19.944
70.56	17.302
70.78	15.206
71	11.966
71.22	22.4
71.44	13.444
71.66	23.072
71.88	11.095
72.1	13.123
72.32	12.971
72.54	15.018
72.76	11.824
72.98	1.699
73.2	35.816
73.42	22.011
73.64	4.214
73.86	12.13
74.08	6.997
74.3	7.87
74.52	18.971
74.74	8.006
74.96	7.997
75.18	31.257
75.4	5.415
75.62	15.795
75.84	17.8
76.06	16.268
76.28	35.065
76.5	18.064
76.72	1.823
76.94	21.188
77.16	15.3
77.38	12.542
77.6	19.008
77.82	26.35
78.04	8.901
78.26	9.806
78.48	10.661
78.7	2.125
78.92	3.383
79.14	16.641
79.36	6.634
79.58	12.562
79.8	20.201
80.02	16.461
80.24	16.126
80.46	13.76
80.68	29.137
80.9	5.816
81.12	21.756
81.34	6.613
81.56	20.056
81.78	11.258
82	3.494
82.22	25.071
82.44	15.729
82.66	6.012
82.88	21.494
83.1	32.383
83.32	22.357
83.54	5.078
83.76	4.908
83.98	17.255
84.2	21.347
84.42	9.911
84.64	7.788
84.86	2.632
85.08	0.755
85.3	18.307
85.52	15.826
85.74	4.273
85.96	3.793
86.18	7.934
86.4	18.021
86.62	11.763
86.84	18.893
87.06	25.628
87.28	4.022
87.5	4.554
87.72	17.612
87.94	31.022
88.16	21.402
88.38	4.31
88.6	14.447
88.82	17.227
89.04	8.553
89.26	12.073
89.48	22.682
89.7	32.982
89.92	20.493
