Measurement: Powder, Xray Data XY Processed
Mineral: Babingtonite
Rruff sample: R060083
Ideal chemistry: Ca_2_Fe^2+^Fe^3+^Si_5_O_14_(OH)
Locality: Hampden Quarry, Springfield, Massachusetts, USA
Source: University of Arizona Mineral Museum
Description: Black stubby prismatic crystal associated with quartz
Diffraction sample description: Powder
Measured chemistry: Ca_2.00_(Fe^2+^_0.73_Mg_0.21_Mn_0.06_)(Fe^3+^_0.93_Al_0.07_)Si_5.00_O_14_(OH)
Cell parameters: a: 7.467(2) b: 11.630(3) c: 6.682(2) alpha: 91.63(3) beta: 93.92(2) gamma: 104.17(8) volume: 560.7(5) crystal system: triclinic
x	intensity
5	0
5.22	9.605
5.44	18.651
5.66	6.52
5.88	10.603
6.1	14.319
6.32	14.313
6.54	23.032
6.76	19.149
6.98	7.533
7.2	11.415
7.42	2.811
7.64	21.404
7.86	22.757
8.08	15.306
8.3	18.314
8.52	20.947
8.74	17.742
8.96	4.718
9.18	10.929
9.4	6.057
9.62	3.851
9.84	22.02
10.06	9.452
10.28	6.244
10.5	24.338
10.72	31.259
10.94	16.992
11.16	3.014
11.38	3.605
11.6	1.965
11.82	10.559
12.04	16.581
12.26	4.051
12.48	12.972
12.7	18.25
12.92	14.975
13.14	16.48
13.36	42.562
13.58	5.311
13.8	17.264
14.02	15.279
14.24	13.368
14.46	15.27
14.68	9.209
14.9	6.654
15.12	12.951
15.34	30.334
15.56	18.911
15.78	3.148
16	15.074
16.22	8.764
16.44	18.051
16.66	14.017
16.88	31.644
17.1	17.773
17.32	5.335
17.54	14.462
17.76	2.115
17.98	8.579
18.2	12.516
18.42	11.04
18.64	9.106
18.86	13.627
19.08	25.251
19.3	2.648
19.52	18.434
19.74	7.839
19.96	11.469
20.18	10.269
20.4	9.95
20.62	11.52
20.84	11.145
21.06	16.893
21.28	5.84
21.5	29.42
21.72	22.463
21.94	24.163
22.16	16.235
22.38	5.897
22.6	14.193
22.82	32.406
23.04	4.565
23.26	15.561
23.48	19.617
23.7	7.349
23.92	18.59
24.14	9.137
24.36	7.042
24.58	15.797
24.8	15.306
25.02	3.693
25.24	15.809
25.46	17.314
25.68	15.903
25.9	27.853
26.12	4.029
26.34	5.101
26.56	26.979
26.78	44.306
27	12.872
27.22	15.581
27.44	11.001
27.66	32.706
27.88	9.049
28.1	3.247
28.32	28.779
28.54	25.326
28.76	24.555
28.98	0.032
29.2	9.779
29.42	10.194
29.64	43.656
29.86	23.875
30.08	0.821
30.3	136.536
30.52	29.273
30.74	2.736
30.96	18.196
31.18	73.641
31.4	28.599
31.62	25.442
31.84	17.972
32.06	6.699
32.28	26.741
32.5	35.442
32.72	49.795
32.94	33.956
33.16	19.714
33.38	8.118
33.6	9.678
33.82	5.629
34.04	19.373
34.26	39.214
34.48	14.244
34.7	7.463
34.92	1.859
35.14	24.41
35.36	9.035
35.58	10.763
35.8	6.87
36.02	13.852
36.24	2.285
36.46	23.987
36.68	13.712
36.9	15.953
37.12	35.324
37.34	27.375
37.56	37.173
37.78	28.073
38	15.286
38.22	6.338
38.44	18.931
38.66	6.478
38.88	17.252
39.1	9.542
39.32	2.978
39.54	8.709
39.76	23.619
39.98	13.601
40.2	30.51
40.42	5.058
40.64	1.464
40.86	18.755
41.08	46.732
41.3	13.901
41.52	9.183
41.74	38.035
41.96	9.592
42.18	5.773
42.4	8.358
42.62	16.742
42.84	4.675
43.06	17.064
43.28	12.273
43.5	20.107
43.72	5.786
43.94	31.748
44.16	10.336
44.38	0.993
44.6	5.693
44.82	29.952
45.04	8.264
45.26	11.549
45.48	13.737
45.7	16.895
45.92	5.071
46.14	18.429
46.36	23.094
46.58	11.464
46.8	23.046
47.02	17.86
47.24	13.646
47.46	3.081
47.68	15.032
47.9	7.731
48.12	5.668
48.34	10.071
48.56	35.797
48.78	6.997
49	7.156
49.22	19.938
49.44	5.966
49.66	23.092
49.88	8.468
50.1	14.652
50.32	23.77
50.54	31.181
50.76	24.751
50.98	13.855
51.2	1.765
51.42	12.636
51.64	19.379
51.86	26.731
52.08	9.867
52.3	8.752
52.52	23.661
52.74	13.854
52.96	0.6
53.18	7.58
53.4	14.42
53.62	11.228
53.84	25.93
54.06	11.094
54.28	14.838
54.5	22.415
54.72	12.637
54.94	20.793
55.16	19.234
55.38	25.824
55.6	3.49
55.82	3.087
56.04	22.807
56.26	7.151
56.48	13.341
56.7	13.647
56.92	38.02
57.14	13.799
57.36	1.875
57.58	14.925
57.8	12.19
58.02	10.63
58.24	3.79
58.46	10.85
58.68	6.513
58.9	12.807
59.12	4.466
59.34	17.754
59.56	5.375
59.78	12.16
60	16.456
60.22	19.569
60.44	11.53
60.66	12.65
60.88	10.958
61.1	25.538
61.32	23.499
61.54	17.432
61.76	13.063
61.98	10.356
62.2	36.809
62.42	4.479
62.64	4.132
62.86	3.922
63.08	17.815
63.3	1.702
63.52	26.745
63.74	10.603
63.96	8.367
64.18	7.558
64.4	18.977
64.62	8.793
64.84	3.049
65.06	26.182
65.28	27.864
65.5	8.628
65.72	19.812
65.94	19.306
66.16	27.314
66.38	19.769
66.6	2.853
66.82	0.786
67.04	23.461
67.26	18.625
67.48	40.765
67.7	18.014
67.92	15.793
68.14	15.57
68.36	23.513
68.58	3.308
68.8	16.156
69.02	14.747
69.24	7.604
69.46	18.736
69.68	25.944
69.9	16.539
70.12	21.091
70.34	9.834
70.56	24.328
70.78	22.341
71	19.901
71.22	21.033
71.44	17.708
71.66	5.129
71.88	15.421
72.1	2.452
72.32	0.856
72.54	6.161
72.76	10.492
72.98	20.642
73.2	22.995
73.42	13.106
73.64	25.409
73.86	12.466
74.08	13.559
74.3	13.282
74.52	5.831
74.74	13.997
74.96	20.369
75.18	29.098
75.4	28.782
75.62	12.559
75.84	5.022
76.06	28.911
76.28	12.814
76.5	3.43
76.72	11.352
76.94	5.835
77.16	2.146
77.38	22.694
77.6	17.948
77.82	37.151
78.04	13.905
78.26	2.72
78.48	14.834
78.7	3.216
78.92	12.229
79.14	19.187
79.36	9.815
79.58	20.545
79.8	13.623
80.02	13.52
80.24	24.756
80.46	7.581
80.68	19.45
80.9	9.798
81.12	15.814
81.34	7.886
81.56	3.169
81.78	16.599
82	6.375
82.22	8.485
82.44	3.634
82.66	15.223
82.88	8.478
83.1	12.703
83.32	15.4
83.54	17.524
83.76	9.25
83.98	14.73
84.2	13.633
84.42	5.111
84.64	19.881
84.86	22.937
85.08	7.338
85.3	7.926
85.52	24.933
85.74	0.334
85.96	27.728
86.18	11.526
86.4	4.322
86.62	1.259
86.84	4.837
87.06	18.156
87.28	7.401
87.5	0.565
87.72	32.981
87.94	15.032
88.16	19.857
88.38	20.973
88.6	11.349
88.82	18.761
89.04	20.667
89.26	12.444
89.48	21.016
89.7	28.492
89.92	1.348
