Measurement: Powder, Xray Data XY Processed
Mineral: Baddeleyite
Rruff sample: R060016
Ideal chemistry: Zr^4+^O_2_
Locality: Wet Loo, Myanmar
Source: American Museum of Natural History
Description: Brown crystal fragment
Diffraction sample description: Powder
Measured chemistry: (Zr_0.99_Ti_0.01_)_Î£=1_O_2_
Cell parameters: a: 5.1449(1) b: 5.2108(1) c: 5.3123(1) alpha: 90 beta: 99.229(2) gamma: 90 volume: 140.574(4) crystal system: monoclinic
x	intensity
5	0
5.22	0.596841
5.44	2.27625
5.66	7.70499
5.88	4.9418
6.1	14.1507
6.32	5.75865
6.54	6.21579
6.76	7.55436
6.98	7.66514
7.2	2.88278
7.42	7.18398
7.64	8.41232
7.86	2.67647
8.08	6.82468
8.3	6.12722
8.52	4.28429
8.74	2.56414
8.96	0.382924
9.18	7.46756
9.4	7.41016
9.62	3.58921
9.84	4.57915
10.06	2.55128
10.28	6.62697
10.5	2.61748
10.72	6.60907
10.94	5.56932
11.16	2.36932
11.38	3.39378
11.6	7.41251
11.82	5.18391
12.04	1.15885
12.26	0.111051
12.48	7.16993
12.7	3.14559
12.92	6.15857
13.14	0.266242
13.36	4.61482
13.58	3.78389
13.8	5.87477
14.02	5.91162
14.24	6.14443
14.46	3.20448
14.68	3.32225
14.9	5.6169
15.12	0.508339
15.34	1.52443
15.56	0.309482
15.78	6.98747
16	3.91168
16.22	7.72347
16.44	2.60486
16.66	1.43061
16.88	7.46335
17.1	0.403682
17.32	3.13996
17.54	66.2511
17.76	2.41438
17.98	0.627002
18.2	6.36876
18.42	2.33958
18.64	5.37029
18.86	5.38031
19.08	8.33803
19.3	7.43181
19.52	3.54543
19.74	4.4911
19.96	6.39219
20.18	2.36578
20.4	6.51505
20.62	1.66869
20.84	1.74053
21.06	6.92662
21.28	0.998546
21.5	5.06206
21.72	4.01472
21.94	5.25195
22.16	0.891674
22.38	2.07296
22.6	2.00793
22.82	5.86318
23.04	1.5755
23.26	2.36442
23.48	4.03813
23.7	3.8687
23.92	10.9351
24.14	105.621
24.36	15.1969
24.58	80.179
24.8	2.29154
25.02	0.31319
25.24	3.58266
25.46	28.6873
25.68	1.94825
25.9	5.926
26.12	7.84035
26.34	2.62311
26.56	2.05407
26.78	3.68493
27	3.14024
27.22	2.50877
27.44	8.07291
27.66	5.35798
27.88	7.13565
28.1	63.6664
28.32	339.834
28.54	25.8996
28.76	3.07773
28.98	7.71139
29.2	4.05218
29.42	4.28352
29.64	2.68967
29.86	1.86828
30.08	7.99196
30.3	0.897666
30.52	0.209916
30.74	4.52311
30.96	8.39507
31.18	14.5783
31.4	61.1261
31.62	266.074
31.84	23.1149
32.06	4.2714
32.28	2.59058
32.5	6.0933
32.72	6.54397
32.94	6.55621
33.16	4.51724
33.38	7.30383
33.6	3.81348
33.82	0.390588
34.04	14.2591
34.26	108.751
34.48	66.3498
34.7	10.1302
34.92	5.48187
35.14	2.33939
35.36	532.739
35.58	10.1279
35.8	4.753
36.02	14.4414
36.24	11.957
36.46	0.389216
36.68	8.18972
36.9	4.61451
37.12	1.06136
37.34	2.20917
37.56	0.347827
37.78	5.20884
38	4.21445
38.22	4.43609
38.44	6.07033
38.66	21.8456
38.88	2.6813
39.1	3.39995
39.32	3.44204
39.54	8.19452
39.76	6.00575
39.98	2.84879
40.2	0.661351
40.42	4.37278
40.64	9.10227
40.86	36.1686
41.08	9.45565
41.3	45.5341
41.52	44.8406
41.74	1.40223
41.96	5.83127
42.18	0.227704
42.4	3.45647
42.62	7.76287
42.84	2.93319
43.06	8.96164
43.28	0.927756
43.5	2.60501
43.72	0.356308
43.94	2.93947
44.16	4.23343
44.38	6.75988
44.6	5.50625
44.82	20.3512
45.04	18.1375
45.26	6.32213
45.48	12.4937
45.7	26.5879
45.92	7.96618
46.14	8.40575
46.36	1.22741
46.58	5.1353
46.8	8.46393
47.02	0.883093
47.24	1.85946
47.46	2.76329
47.68	3.19423
47.9	5.73791
48.12	0.097174
48.34	4.21924
48.56	0.594465
48.78	0.787093
49	25.7008
49.22	37.798
49.44	107.859
49.66	10.3183
49.88	13.9757
50.1	82.6799
50.32	138.716
50.54	41.0943
50.76	70.9837
50.98	2.71355
51.2	28.4144
51.42	16.2172
51.64	1.85008
51.86	1.12531
52.08	6.79735
52.3	3.49224
52.52	1.91058
52.74	6.09063
52.96	1.97077
53.18	0.389938
53.4	4.74449
53.62	3.39204
53.84	9.9506
54.06	20.3693
54.28	45.9615
54.5	5.29234
54.72	17.7157
54.94	4.43422
55.16	1.54094
55.38	39.1316
55.6	83.5059
55.82	30.5977
56.04	31.5655
56.26	8.63004
56.48	0.790669
56.7	6.91359
56.92	1.01994
57.14	20.1384
57.36	41.2889
57.58	7.34719
57.8	8.14017
58.02	16.6974
58.24	8.80921
58.46	9.09142
58.68	1.27288
58.9	1.54494
59.12	4.58423
59.34	7.61895
59.56	7.80717
59.78	44.117
60	78.2344
60.22	90.5842
60.44	17.7689
60.66	5.45444
60.88	8.02811
61.1	2.6554
61.32	7.30643
61.54	12.1343
61.76	3.0374
61.98	24.6778
62.2	23.4436
62.42	0.530169
62.64	4.41714
62.86	46.8504
63.08	46.2814
63.3	4.63686
63.52	4.02018
63.74	3.86671
63.96	2.07417
64.18	11.2381
64.4	16.3568
64.62	3.39495
64.84	1.15707
65.06	9.42755
65.28	8.3406
65.5	13.5099
65.72	50.8965
65.94	82.1427
66.16	10.942
66.38	0.582212
66.6	1.7423
66.82	2.81995
67.04	6.55525
67.26	0.800709
67.48	2.09452
67.7	5.19403
67.92	4.18476
68.14	0.050298
68.36	7.93943
68.58	3.7638
68.8	1.49847
69.02	6.59729
69.24	4.41502
69.46	3.49177
69.68	8.38333
69.9	8.08823
70.12	2.8972
70.34	0.328172
70.56	2.42028
70.78	8.11303
71	3.89402
71.22	19.6532
71.44	10.3177
71.66	3.9229
71.88	4.7828
72.1	15.2679
72.32	2.45801
72.54	16.7649
72.76	8.94402
72.98	8.37722
73.2	3.56675
73.42	1.73227
73.64	4.85099
73.86	2.98163
74.08	2.11135
74.3	3.05394
74.52	0.67497
74.74	60.8161
74.96	33.1288
75.18	14.4474
75.4	11.1791
75.62	3.128
75.84	7.09037
76.06	2.1227
76.28	2.03553
76.5	19.7474
76.72	9.71095
76.94	3.54098
77.16	7.13454
77.38	5.58535
77.6	8.19828
77.82	6.17921
78.04	3.18815
78.26	2.35528
78.48	7.5873
78.7	5.06388
78.92	128.734
79.14	31.8632
79.36	10.2058
79.58	2.36953
79.8	2.877
80.02	4.04467
80.24	4.12662
80.46	8.27817
80.68	1.19088
80.9	11.6053
81.12	6.16507
81.34	3.63361
81.56	5.30846
81.78	4.76584
82	5.19869
82.22	2.67814
82.44	0.370667
82.66	21.0053
82.88	6.39752
83.1	18.0753
83.32	12.0724
83.54	7.21015
83.76	0.094543
83.98	13.1359
84.2	25.315
84.42	30.0191
84.64	0.519812
84.86	14.8431
85.08	7.18082
85.3	14.6789
85.52	2.2133
85.74	2.50613
85.96	2.60365
86.18	7.73133
86.4	2.81132
86.62	3.79019
86.84	3.318
87.06	6.1338
87.28	8.94795
87.5	8.90136
87.72	0.710384
87.94	3.91383
88.16	14.1843
88.38	3.06226
88.6	18.057
88.82	12.7485
89.04	1.86037
89.26	1.95066
89.48	2.37221
89.7	9.04273
89.92	14.0407
