Measurement: Powder, Xray Data XY Processed
Mineral: Balangeroite
Rruff sample: R060244
Ideal chemistry: Mg_21_Si_8_O_27_(OH)_20_
Locality: San Vittore mine, Balangero Serpentinite, Lanzo Valley, Piedmont, Italy
Source: Michael Scott
Description: Brown fibers, asbestiform
Diffraction sample description: Powder
x	intensity
5	0
5.22	10.454
5.44	20.9767
5.66	25.2323
5.88	46.6191
6.1	34.0856
6.32	38.9402
6.54	5.10025
6.76	17.661
6.98	3.24276
7.2	25.0997
7.42	1.61693
7.64	2.08439
7.86	4.9483
8.08	6.02068
8.3	20.7016
8.52	14.3369
8.74	16.9463
8.96	13.9677
9.18	46.3877
9.4	8.11033
9.62	8.91853
9.84	2.79554
10.06	18.2384
10.28	18.7041
10.5	8.98691
10.72	12.3465
10.94	18.6186
11.16	6.49655
11.38	10.7639
11.6	6.90256
11.82	27.6427
12.04	65.7031
12.26	199.69
12.48	40.4555
12.7	3.67209
12.92	13.8701
13.14	85.1531
13.36	13.88
13.58	4.97363
13.8	1.10527
14.02	7.02407
14.24	2.89719
14.46	21.8535
14.68	14.4793
14.9	10.9025
15.12	12.2097
15.34	10.3429
15.56	7.07208
15.78	5.60191
16	18.7181
16.22	7.74454
16.44	11.3311
16.66	21.4922
16.88	20.8538
17.1	0.257793
17.32	14.0457
17.54	4.59
17.76	7.23381
17.98	12.0375
18.2	18.7899
18.42	17.0881
18.64	16.1852
18.86	25.5787
19.08	9.79829
19.3	13.9242
19.52	1.92125
19.74	15.9804
19.96	10.8473
20.18	2.81686
20.4	3.51165
20.62	27.4466
20.84	17.6986
21.06	9.88214
21.28	13.3076
21.5	14.2509
21.72	18.6647
21.94	6.54392
22.16	15.7894
22.38	8.7852
22.6	4.389
22.82	0.397358
23.04	19.0189
23.26	8.97166
23.48	10.9043
23.7	12.6508
23.92	30.9725
24.14	35.427
24.36	50.6524
24.58	102.105
24.8	69.9032
25.02	5.45519
25.24	4.85894
25.46	20.0792
25.68	20.2836
25.9	8.79795
26.12	13.9774
26.34	65.2454
26.56	6.85014
26.78	11.3794
27	14.988
27.22	19.0638
27.44	4.504
27.66	12.5985
27.88	28.3643
28.1	12.5835
28.32	17.9715
28.54	20.6785
28.76	7.12368
28.98	5.66288
29.2	22.3937
29.42	24.0417
29.64	4.22543
29.86	13.4202
30.08	8.69019
30.3	1.03042
30.52	20.0573
30.74	2.20234
30.96	17.1523
31.18	7.27009
31.4	12.7937
31.62	18.8323
31.84	17.3006
32.06	3.75488
32.28	3.19844
32.5	10.2324
32.72	4.31308
32.94	52.601
33.16	25.1814
33.38	38.3869
33.6	30.8381
33.82	17.2141
34.04	8.44549
34.26	11.1936
34.48	1.96655
34.7	13.8553
34.92	16.7763
35.14	41.9096
35.36	13.354
35.58	47.9476
35.8	20.3189
36.02	27.027
36.24	13.1153
36.46	7.17789
36.68	3.70507
36.9	8.78892
37.12	19.9301
37.34	3.28267
37.56	5.41678
37.78	21.0237
38	3.2362
38.22	1.63942
38.44	14.3924
38.66	28.1141
38.88	21.6564
39.1	16.4478
39.32	8.59009
39.54	13.8067
39.76	16.1396
39.98	10.4737
40.2	26.6562
40.42	9.28204
40.64	16.2884
40.86	7.83438
41.08	5.06039
41.3	12.336
41.52	3.62644
41.74	2.35973
41.96	4.12112
42.18	7.53198
42.4	2.02016
42.62	13.1901
42.84	13.7116
43.06	0.082809
43.28	43.5218
43.5	9.51663
43.72	15.7128
43.94	5.80186
44.16	0.76516
44.38	6.8022
44.6	9.64098
44.82	23.9425
45.04	20.4026
45.26	12.6441
45.48	21.7304
45.7	16.902
45.92	12.8511
46.14	17.3997
46.36	13.7448
46.58	7.14208
46.8	10.2559
47.02	12.5734
47.24	34.1732
47.46	24.4862
47.68	17.572
47.9	16.5846
48.12	20.4427
48.34	11.6925
48.56	6.7392
48.78	13.8704
49	12.4854
49.22	5.23662
49.44	7.15565
49.66	9.66074
49.88	16.5423
50.1	6.92521
50.32	15.0547
50.54	14.4144
50.76	25.6011
50.98	9.76273
51.2	1.94349
51.42	19.9568
51.64	18.8598
51.86	2.61003
52.08	10.4247
52.3	0.254837
52.52	19.9104
52.74	20.1271
52.96	17.4269
53.18	10.2452
53.4	15.1748
53.62	1.70113
53.84	18.6711
54.06	28.6341
54.28	10.6236
54.5	4.16106
54.72	18.2071
54.94	11.0213
55.16	8.04264
55.38	15.1698
55.6	6.72755
55.82	27.5456
56.04	12.3439
56.26	10.8612
56.48	13.7599
56.7	4.61375
56.92	21.5775
57.14	10.6464
57.36	7.78725
57.58	30.7682
57.8	27.1197
58.02	24.2852
58.24	23.3656
58.46	11.6173
58.68	2.67057
58.9	11.6882
59.12	2.32238
59.34	19.6877
59.56	3.39622
59.78	15.8035
60	20.0613
60.22	9.56906
60.44	2.05848
60.66	15.1256
60.88	29.7452
61.1	7.7557
61.32	4.04261
61.54	10.1587
61.76	19.256
61.98	19.5317
62.2	7.77749
62.42	14.3041
62.64	6.56574
62.86	27.2625
63.08	28.9363
63.3	10.3351
63.52	21.6608
63.74	8.12565
63.96	14.4299
64.18	1.35165
64.4	18.5725
64.62	11.3199
64.84	7.34434
65.06	1.92746
65.28	23.9306
65.5	3.25928
65.72	5.81238
65.94	15.0925
66.16	9.35372
66.38	14.7675
66.6	9.86046
66.82	5.72314
67.04	7.04254
67.26	6.61789
67.48	8.58176
67.7	8.11739
67.92	6.4459
68.14	20.3576
68.36	23.4616
68.58	18.675
68.8	0.276443
69.02	19.3987
69.24	14.7447
69.46	14.0623
69.68	14.4129
69.9	17.9182
70.12	15.3336
70.34	15.6316
70.56	9.25692
70.78	0.546654
71	10.7907
71.22	11.6125
71.44	5.33543
71.66	6.34773
71.88	14.3242
72.1	10.7033
72.32	16.9317
72.54	9.35525
72.76	1.12999
72.98	4.09794
73.2	3.22964
73.42	8.22947
73.64	7.47093
73.86	21.4438
74.08	4.22673
74.3	2.37201
74.52	9.42311
74.74	14.0704
74.96	10.0195
75.18	3.28601
75.4	7.49599
75.62	25.705
75.84	7.71778
76.06	9.73881
76.28	2.63844
76.5	6.37516
76.72	9.37776
76.94	20.2543
77.16	16.4689
77.38	25.4559
77.6	18.2415
77.82	13.5175
78.04	2.44194
78.26	9.6876
78.48	14.4045
78.7	9.73888
78.92	7.78434
79.14	15.8385
79.36	9.5292
79.58	15.4855
79.8	19.7474
80.02	0.121101
80.24	13.141
80.46	16.6577
80.68	15.107
80.9	5.31097
81.12	1.48361
81.34	13.494
81.56	13.7758
81.78	8.88997
82	8.78775
82.22	14.332
82.44	9.42808
82.66	15.4714
82.88	4.13221
83.1	16.4925
83.32	5.57166
83.54	7.14326
83.76	16.9295
83.98	10.6529
84.2	12.0187
84.42	1.94472
84.64	15.4851
84.86	8.29559
85.08	3.92815
85.3	7.22838
85.52	1.27917
85.74	12.1177
85.96	6.16467
86.18	14.5567
86.4	7.72485
86.62	6.91182
86.84	9.85022
87.06	12.9129
87.28	3.97294
87.5	4.86304
87.72	14.9336
87.94	9.01284
88.16	2.10226
88.38	12.5338
88.6	2.8993
88.82	2.00419
89.04	1.08654
89.26	10.6499
89.48	7.38442
89.7	15.7734
89.92	5.53491
