Measurement: Powder, Xray Data XY Processed
Mineral: Baotite
Rruff sample: R060414
Ideal chemistry: Ba_4_(Ti^4+^,Nb^5+^,W^6+^)_8_O_16_(SiO_3_)_4_Cl
Locality: Zagi Mountain, near Hammedabad, Khaffor Dehri, North-West Frontier Province, Pakistan
Source: Herb Obodda
Description: Dark brown vitreous fragment
Diffraction sample description: Powder
Measured chemistry: Ba_4.00_(Ti_6.54_Nb^5+^_1.23_Fe^3+^_0.23_)_Î£=8_O_16_(Si_1.00_O_3_)_4_Cl_1.00_
Cell parameters: a: 19.9933(6) b: 19.9933(6) c: 5.8930(4) alpha: 90. beta: 90. gamma: 90. volume: 2355.6(1) crystal system: tetragonal
x	intensity
5	0
5.22	5.09681
5.44	7.71355
5.66	6.70676
5.88	1.72709
6.1	6.92399
6.32	0.130457
6.54	8.45554
6.76	6.57139
6.98	7.86955
7.2	1.6875
7.42	2.58272
7.64	7.75036
7.86	0.008003
8.08	3.33375
8.3	3.6006
8.52	1.8125
8.74	3.17238
8.96	6.23483
9.18	3.49707
9.4	0.608549
9.62	4.76927
9.84	4.9312
10.06	1.21796
10.28	2.70892
10.5	2.46263
10.72	1.58573
10.94	3.67455
11.16	8.52414
11.38	2.64573
11.6	2.61227
11.82	2.66612
12.04	4.55629
12.26	3.63644
12.48	5.77221
12.7	3.98246
12.92	6.0489
13.14	2.13443
13.36	3.27122
13.58	5.36016
13.8	2.31141
14.02	0.211583
14.24	2.14544
14.46	0.923638
14.68	9.80955
14.9	0.33257
15.12	1.48603
15.34	2.41075
15.56	8.39258
15.78	44.4695
16	6.47662
16.22	3.66851
16.44	0.278285
16.66	6.80542
16.88	5.89014
17.1	0.969594
17.32	3.01849
17.54	10.2227
17.76	10.1757
17.98	6.18961
18.2	6.07265
18.42	8.97286
18.64	7.98209
18.86	2.10303
19.08	4.09824
19.3	5.10389
19.52	3.20198
19.74	6.19337
19.96	10.0214
20.18	5.01565
20.4	2.9943
20.62	0.088925
20.84	4.77607
21.06	1.6404
21.28	7.44562
21.5	2.60205
21.72	6.60553
21.94	5.47603
22.16	20.4728
22.38	2.37913
22.6	0.558935
22.82	5.3576
23.04	3.21113
23.26	7.24787
23.48	1.25405
23.7	16.2381
23.92	14.0674
24.14	0.917215
24.36	3.82238
24.58	2.76694
24.8	3.84713
25.02	4.82874
25.24	163.855
25.46	12.9721
25.68	5.84185
25.9	0.70786
26.12	1.5759
26.34	1.70609
26.56	9.67059
26.78	9.62317
27	77.318
27.22	10.2717
27.44	7.13493
27.66	1.14339
27.88	4.19358
28.1	4.32206
28.32	80.5829
28.54	45.6865
28.76	7.12768
28.98	0.387047
29.2	3.5057
29.42	5.58487
29.64	3.62336
29.86	4.62404
30.08	4.44132
30.3	1.16696
30.52	4.098
30.74	3.9878
30.96	8.71804
31.18	76.3728
31.4	9.1891
31.62	10.3567
31.84	4.68847
32.06	0.990567
32.28	25.1009
32.5	12.2564
32.72	0.432573
32.94	0.58429
33.16	3.70952
33.38	2.85432
33.6	52.9303
33.82	9.01707
34.04	2.86676
34.26	4.63767
34.48	0.568665
34.7	2.62998
34.92	12.6055
35.14	6.59093
35.36	0.599986
35.58	2.38569
35.8	5.4255
36.02	63.6853
36.24	17.8047
36.46	1.90789
36.68	2.00735
36.9	0.012586
37.12	1.01904
37.34	2.00122
37.56	3.18403
37.78	7.19515
38	3.20511
38.22	35.9205
38.44	6.77747
38.66	0.782917
38.88	3.90027
39.1	0.176315
39.32	4.7971
39.54	7.79617
39.76	2.85183
39.98	1.80158
40.2	1.18199
40.42	80.9472
40.64	5.01762
40.86	2.10566
41.08	3.21491
41.3	1.19413
41.52	2.26107
41.74	7.57041
41.96	0.683808
42.18	0.637836
42.4	0.295756
42.62	4.86809
42.84	0.141554
43.06	2.00549
43.28	5.86343
43.5	0.542976
43.72	3.36353
43.94	13.0086
44.16	0.805657
44.38	7.5393
44.6	22.2926
44.82	5.29609
45.04	1.00844
45.26	0.76556
45.48	31.4955
45.7	7.68276
45.92	0.073577
46.14	5.01925
46.36	40.1048
46.58	12.3705
46.8	0.667103
47.02	1.12353
47.24	4.80395
47.46	9.92358
47.68	3.03648
47.9	2.26268
48.12	2.12061
48.34	12.8727
48.56	0.044648
48.78	2.98585
49	5.80858
49.22	5.7343
49.44	0.850273
49.66	3.05727
49.88	1.11215
50.1	8.29408
50.32	6.19131
50.54	2.21381
50.76	0.782048
50.98	2.11912
51.2	1.08289
51.42	1.73201
51.64	13.1253
51.86	27.97
52.08	9.7731
52.3	0.683464
52.52	5.46877
52.74	14.3152
52.96	0.484243
53.18	3.87209
53.4	5.87266
53.62	19.8945
53.84	9.70822
54.06	5.76589
54.28	5.7254
54.5	9.75497
54.72	5.92219
54.94	2.92914
55.16	37.8574
55.38	6.06139
55.6	2.70394
55.82	1.74976
56.04	7.76715
56.26	8.96116
56.48	6.05047
56.7	3.07192
56.92	8.06525
57.14	10.0564
57.36	3.08489
57.58	6.94944
57.8	5.05669
58.02	6.05671
58.24	0.93344
58.46	9.00043
58.68	5.95212
58.9	4.00115
59.12	0.084308
59.34	14.2333
59.56	1.19615
59.78	3.50804
60	2.71854
60.22	4.63233
60.44	0.710542
60.66	4.77616
60.88	7.87326
61.1	6.96179
61.32	1.94464
61.54	19.9886
61.76	5.93356
61.98	3.80653
62.2	0.534949
62.42	6.54496
62.64	5.52157
62.86	3.50199
63.08	9.6275
63.3	9.48383
63.52	0.508617
63.74	5.48815
63.96	8.43535
64.18	2.48642
64.4	3.49884
64.62	3.50978
64.84	5.30868
65.06	4.33807
65.28	4.28274
65.5	8.18381
65.72	6.21163
65.94	1.20005
66.16	6.23717
66.38	4.22215
66.6	5.27553
66.82	1.599
67.04	2.75407
67.26	0.735734
67.48	2.89945
67.7	2.85678
67.92	0.781274
68.14	4.56778
68.36	4.47088
68.58	1.60764
68.8	0.192423
69.02	16.9531
69.24	7.74478
69.46	2.52364
69.68	4.61262
69.9	6.40635
70.12	1.62105
70.34	1.79596
70.56	32.0169
70.78	17.1955
71	7.25057
71.22	0.341975
71.44	3.45026
71.66	4.50198
71.88	3.52454
72.1	4.45064
72.32	0.554755
72.54	4.17866
72.76	10.3756
72.98	3.25628
73.2	7.13719
73.42	3.23114
73.64	5.23443
73.86	1.31841
74.08	7.37005
74.3	7.40785
74.52	2.4394
74.74	5.59645
74.96	6.73489
75.18	6.57455
75.4	4.65429
75.62	2.71424
75.84	3.53756
76.06	8.54545
76.28	6.67885
76.5	3.69346
76.72	3.70898
76.94	3.79414
77.16	3.62041
77.38	3.5415
77.6	1.86768
77.82	4.77736
78.04	3.77262
78.26	2.73775
78.48	3.73789
78.7	1.57987
78.92	4.62679
79.14	4.62765
79.36	4.59468
79.58	1.60239
79.8	3.87383
80.02	4.56095
80.24	0.355759
80.46	3.74265
80.68	2.75212
80.9	5.72261
81.12	5.7313
81.34	5.62861
81.56	6.6737
81.78	19.6874
82	8.60548
82.22	0.314186
82.44	3.35622
82.66	3.40965
82.88	2.38527
83.1	8.42529
83.32	4.47926
83.54	3.56373
83.76	3.69529
83.98	3.71931
84.2	4.68691
84.42	5.76722
84.64	1.93171
84.86	5.90928
85.08	0.909812
85.3	4.94509
85.52	3.13606
85.74	4.29643
85.96	9.16107
86.18	0.046649
86.4	0.018452
86.62	5.94411
86.84	3.84739
87.06	1.66565
87.28	8.54472
87.5	7.47338
87.72	1.33165
87.94	3.26172
88.16	8.04103
88.38	0.770464
88.6	8.39522
88.82	1.16284
89.04	0.29979
89.26	8.31256
89.48	2.57868
89.7	5.6731
89.92	8.76526
