Measurement: Powder, Xray Data XY Processed
Mineral: Barysilite
Rruff sample: R050002
Ideal chemistry: Pb^2+^_8_Mn^2+^(Si_2_O_7_)_3_
Locality: Franklin, Sussex County, New Jersey, USA
Source: University of Arizona Mineral Museum
Description: A lamellar aggregate of platy crystals
Diffraction sample description: Powder
Measured chemistry: Pb_8.00_Mn_1.00_(Si_2.00_O_7_)_3_
Cell parameters: a: 9.7901(2) b: 9.7901(2) c: 38.344(2) alpha: 90. beta: 90. gamma: 120. volume: 3182.8(1) crystal system: hexagonal
x	intensity
5	0
5.22	6.867
5.44	15.139
5.66	5.386
5.88	6.109
6.1	0.699
6.32	15.547
6.54	10.546
6.76	3.358
6.98	10.342
7.2	6.277
7.42	7.835
7.64	4.351
7.86	9.441
8.08	5.739
8.3	3.121
8.52	7.436
8.74	4.181
8.96	5.273
9.18	6.404
9.4	3.55
9.62	10.55
9.84	1.277
10.06	2.024
10.28	0.057
10.5	3.892
10.72	6.005
10.94	6.953
11.16	5.424
11.38	8.42
11.6	3.53
11.82	5.711
12.04	0.17
12.26	2.981
12.48	8.015
12.7	12.147
12.92	3.233
13.14	0.741
13.36	2.444
13.58	1.713
13.8	11.832
14.02	17.827
14.24	1.393
14.46	5.477
14.68	4.442
14.9	2.513
15.12	3.574
15.34	5.515
15.56	6.517
15.78	5.429
16	6.238
16.22	3.213
16.44	5.159
16.66	8.174
16.88	1.172
17.1	7.015
17.32	6.901
17.54	1.048
17.76	0.015
17.98	7.452
18.2	20.332
18.42	2.154
18.64	5.969
18.86	5.828
19.08	0.725
19.3	12.544
19.52	98.886
19.74	6.804
19.96	2.329
20.18	3.161
20.4	5.018
20.62	3.92
20.84	14.133
21.06	3.991
21.28	19.808
21.5	111.522
21.72	0.871
21.94	1.143
22.16	8.746
22.38	8.014
22.6	4.35
22.82	18.403
23.04	74.505
23.26	8.724
23.48	1.141
23.7	6.023
23.92	4.023
24.14	7.087
24.36	5.168
24.58	0.198
24.8	12.087
25.02	12.819
25.24	8.289
25.46	32.41
25.68	27.227
25.9	12.138
26.12	1.879
26.34	3.426
26.56	3.155
26.78	1.693
27	15.147
27.22	10.404
27.44	13.761
27.66	17.882
27.88	98.771
28.1	36.856
28.32	137.293
28.54	11.329
28.76	5.587
28.98	3.589
29.2	4.613
29.42	20.713
29.64	4.94
29.86	11.415
30.08	25.295
30.3	279.818
30.52	14.828
30.74	0.092
30.96	1.212
31.18	5.409
31.4	9.194
31.62	97.031
31.84	17.86
32.06	5.774
32.28	59.118
32.5	119.994
32.72	13.037
32.94	6.047
33.16	10.007
33.38	21.879
33.6	136.051
33.82	4.813
34.04	195.588
34.26	10.476
34.48	27.156
34.7	34.78
34.92	9.597
35.14	2.077
35.36	5.747
35.58	8.404
35.8	4.912
36.02	8.668
36.24	14.515
36.46	5.517
36.68	9.331
36.9	4.959
37.12	5.543
37.34	8.176
37.56	4.802
37.78	1.302
38	0.73
38.22	19.17
38.44	23.665
38.66	12.427
38.88	16.224
39.1	48.951
39.32	0.724
39.54	16.526
39.76	27.598
39.98	11.279
40.2	5.965
40.42	4.496
40.64	2.863
40.86	3.981
41.08	0.781
41.3	3.513
41.52	0.54
41.74	15.139
41.96	8.823
42.18	6.046
42.4	2.498
42.62	4.872
42.84	23.582
43.06	46.425
43.28	5.606
43.5	17.728
43.72	11.466
43.94	11.458
44.16	8.527
44.38	0.692
44.6	1.486
44.82	0.767
45.04	15.219
45.26	32.256
45.48	6.939
45.7	8.271
45.92	8.683
46.14	2.354
46.36	3.992
46.58	26.481
46.8	74.888
47.02	10.525
47.24	15.787
47.46	3.092
47.68	8.011
47.9	9.756
48.12	10.637
48.34	29.647
48.56	1.482
48.78	8.537
49	24.006
49.22	120.92
49.44	104.133
49.66	32.625
49.88	44.817
50.1	10.236
50.32	0.237
50.54	4.182
50.76	3.911
50.98	6.235
51.2	34.666
51.42	28.644
51.64	8.533
51.86	4.898
52.08	5.848
52.3	0.321
52.52	10.405
52.74	0.902
52.96	1.849
53.18	2.211
53.4	6.907
53.62	62.571
53.84	35.262
54.06	20.602
54.28	6.904
54.5	9.486
54.72	56.642
54.94	28.169
55.16	0.604
55.38	0.308
55.6	1.672
55.82	4.519
56.04	5.31
56.26	2.188
56.48	1.321
56.7	5.542
56.92	16.766
57.14	17.661
57.36	16.386
57.58	23.662
57.8	41.982
58.02	21.808
58.24	35.631
58.46	2.001
58.68	5.206
58.9	8.579
59.12	7.279
59.34	13.381
59.56	23.368
59.78	14.167
60	0.48
60.22	7.284
60.44	38.783
60.66	21.351
60.88	8.106
61.1	4.893
61.32	1.922
61.54	4.976
61.76	8.85
61.98	17.774
62.2	5.746
62.42	1.749
62.64	2.917
62.86	8.411
63.08	12.475
63.3	11.796
63.52	16.959
63.74	6.239
63.96	12.962
64.18	18.711
64.4	9.095
64.62	13.383
64.84	4.653
65.06	5.161
65.28	1.436
65.5	5.905
65.72	10.681
65.94	0.594
66.16	2.474
66.38	2.71
66.6	8.117
66.82	14.811
67.04	15.602
67.26	15.383
67.48	8.978
67.7	6.655
67.92	30.512
68.14	22.65
68.36	2.129
68.58	6.248
68.8	9.317
69.02	9.387
69.24	9.5
69.46	2.806
69.68	13.713
69.9	8.671
70.12	22.292
70.34	19.675
70.56	17.128
70.78	16.959
71	14.895
71.22	2.044
71.44	2.954
71.66	5.755
71.88	6.276
72.1	11.929
72.32	5.622
72.54	12.098
72.76	8.409
72.98	4.692
73.2	26.223
73.42	19.624
73.64	11.394
73.86	5.416
74.08	1.505
74.3	5.559
74.52	5.306
74.74	4.961
74.96	1.889
75.18	2.899
75.4	10.363
75.62	13.634
75.84	2.448
76.06	10.047
76.28	7.447
76.5	2.178
76.72	1.345
76.94	1.299
77.16	8.995
77.38	5.753
77.6	4.415
77.82	4.656
78.04	19.154
78.26	25.229
78.48	13.591
78.7	4.031
78.92	13.403
79.14	37.507
79.36	9.263
79.58	8.955
79.8	0.875
80.02	10.618
80.24	11.557
80.46	0.842
80.68	3.656
80.9	1.039
81.12	7.438
81.34	3.717
81.56	24.56
81.78	10.138
82	5.915
82.22	6.397
82.44	5.518
82.66	9.133
82.88	9.052
83.1	2.17
83.32	7.335
83.54	2.302
83.76	14.274
83.98	17.781
84.2	9.862
84.42	21.212
84.64	11.554
84.86	9.279
85.08	4.276
85.3	3.404
85.52	6.021
85.74	8.872
85.96	10.654
86.18	3.484
86.4	1.171
86.62	14.104
86.84	12.743
87.06	10.39
87.28	6.587
87.5	5.921
87.72	0.524
87.94	1.927
88.16	15.543
88.38	2.052
88.6	10.624
88.82	7.652
89.04	5.051
89.26	5.718
89.48	8.219
89.7	1.566
89.92	7.19
