Measurement: Powder, Xray Data XY Processed
Mineral: Baryte
Rruff sample: R050375
Ideal chemistry: BaS^6+^O_4_
Locality: unknown
Source: Eugene Schlepp
Description: Pale green tabular crystals
Diffraction sample description: Powder
Measured chemistry: Ba_1.00_SO_4_
Cell parameters: a: 8.8823(9) b: 5.4510(7) c: 7.1510(5) alpha: 90. beta: 90. gamma: 90. volume: 346.23(4) crystal system: orthorhombic
x	intensity
5	0
5.22	5.20302
5.44	6.9344
5.66	5.50477
5.88	9.43599
6.1	7.65322
6.32	7.92405
6.54	2.79083
6.76	5.39303
6.98	1.45886
7.2	2.81029
7.42	5.25665
7.64	0.585936
7.86	0.013976
8.08	0.319781
8.3	5.4074
8.52	5.48896
8.74	1.55976
8.96	10.6757
9.18	16.6086
9.4	8.0674
9.62	21.4365
9.84	8.41943
10.06	8.56796
10.28	3.67685
10.5	8.75953
10.72	0.999245
10.94	11.1527
11.16	4.22966
11.38	5.2533
11.6	4.13724
11.82	6.9737
12.04	1.63415
12.26	2.53284
12.48	0.625801
12.7	3.64764
12.92	12.5822
13.14	5.41201
13.36	2.3261
13.58	8.33083
13.8	10.3353
14.02	11.4171
14.24	5.62314
14.46	7.76146
14.68	3.05335
14.9	7.96724
15.12	1.81213
15.34	0.104343
15.56	1.06225
15.78	1.12807
16	6.16382
16.22	0.118734
16.44	0.209099
16.66	7.54249
16.88	7.46218
17.1	3.40238
17.32	1.43014
17.54	5.57265
17.76	4.59226
17.98	6.57791
18.2	1.7287
18.42	3.79088
18.64	5.6469
18.86	1.33965
19.08	6.78133
19.3	3.53954
19.52	7.28441
19.74	3.07145
19.96	14.9164
20.18	14.728
20.4	35.6761
20.62	30.6505
20.84	11.1066
21.06	3.23948
21.28	3.21035
21.5	5.18518
21.72	9.1611
21.94	6.11486
22.16	2.96236
22.38	3.81298
22.6	14.687
22.82	89.647
23.04	19.5047
23.26	8.34375
23.48	3.50027
23.7	14.244
23.92	2.94712
24.14	0.599334
24.36	5.51509
24.58	5.01467
24.8	15.4922
25.02	40.0001
25.24	5.49142
25.46	3.73303
25.68	17.6902
25.9	211.254
26.12	20.3916
26.34	13.7214
26.56	1.1051
26.78	49.8904
27	85.3808
27.22	9.83647
27.44	6.31812
27.66	0.371693
27.88	0.020083
28.1	6.3217
28.32	6.68979
28.54	29.0404
28.76	133.289
28.98	61.4106
29.2	8.42975
29.42	3.88408
29.64	8.22404
29.86	6.48075
30.08	2.52653
30.3	3.40588
30.52	4.27452
30.74	1.98035
30.96	3.52943
31.18	1.18017
31.4	20.6595
31.62	85.1046
31.84	22.5374
32.06	8.22372
32.28	3.16365
32.5	14.3865
32.72	30.8666
32.94	66.3896
33.16	13.9584
33.38	8.68049
33.6	6.14227
33.82	2.58259
34.04	4.1554
34.26	4.85415
34.48	1.57497
34.7	6.65659
34.92	12.6976
35.14	3.54823
35.36	5.52218
35.58	9.39412
35.8	7.13308
36.02	8.08485
36.24	22.1649
36.46	11.1906
36.68	10.0295
36.9	6.73973
37.12	5.82487
37.34	0.701461
37.56	6.5439
37.78	3.35058
38	9.19623
38.22	1.05565
38.44	3.72336
38.66	11.4141
38.88	27.1253
39.1	8.49122
39.32	3.40935
39.54	20.0546
39.76	9.87722
39.98	4.66588
40.2	0.377855
40.42	4.77695
40.64	17.4714
40.86	37.1823
41.08	18.5457
41.3	14.6926
41.52	6.45759
41.74	5.52995
41.96	2.85734
42.18	9.24722
42.4	44.1153
42.62	119.512
42.84	119.03
43.06	93.9764
43.28	28.2718
43.5	0.73367
43.72	2.12214
43.94	22.9552
44.16	21.9573
44.38	4.98576
44.6	1.93523
44.82	0.276213
45.04	1.44035
45.26	7.15613
45.48	5.84582
45.7	5.97269
45.92	1.1806
46.14	4.66943
46.36	4.60677
46.58	8.48223
46.8	4.61579
47.02	9.60844
47.24	14.1584
47.46	2.11196
47.68	1.93011
47.9	0.762332
48.12	7.68809
48.34	0.400196
48.56	1.41369
48.78	6.58216
49	16.8293
49.22	17.8172
49.44	9.00164
49.66	8.12408
49.88	6.11381
50.1	3.21657
50.32	4.35182
50.54	2.61924
50.76	7.5418
50.98	12.4312
51.2	7.19094
51.42	2.99749
51.64	1.65521
51.86	13.3364
52.08	12.0743
52.3	11.0752
52.52	3.16805
52.74	1.75751
52.96	7.50805
53.18	12.5479
53.4	2.57943
53.62	7.62474
53.84	2.57956
54.06	2.44205
54.28	0.614024
54.5	17.5005
54.72	14.5086
54.94	34.124
55.16	8.50282
55.38	8.5218
55.6	2.64583
55.82	1.24218
56.04	9.49619
56.26	6.68997
56.48	4.90284
56.7	5.06696
56.92	3.91993
57.14	0.903456
57.36	3.40908
57.58	5.63111
57.8	2.9225
58.02	7.75978
58.24	8.8008
58.46	13.8179
58.68	1.73551
58.9	3.66273
59.12	3.55054
59.34	3.46322
59.56	0.387464
59.78	5.11224
60	9.9223
60.22	23.7637
60.44	29.0204
60.66	10.1099
60.88	3.9249
61.1	9.13556
61.32	5.1354
61.54	1.14059
61.76	0.931501
61.98	3.93824
62.2	8.85518
62.42	1.81795
62.64	3.67417
62.86	3.2238
63.08	10.6835
63.3	6.16809
63.52	7.24109
63.74	2.53044
63.96	1.39576
64.18	2.31028
64.4	4.24196
64.62	7.06243
64.84	1.22006
65.06	0.498813
65.28	8.38564
65.5	19.1519
65.72	25.4308
65.94	9.83123
66.16	4.17543
66.38	7.48021
66.6	12.4973
66.82	10.5633
67.04	3.73082
67.26	1.99127
67.48	2.23769
67.7	7.43655
67.92	8.58725
68.14	8.87589
68.36	6.02077
68.58	1.54422
68.8	11.4224
69.02	10.7667
69.24	3.36128
69.46	2.6863
69.68	6.97523
69.9	9.28539
70.12	1.49854
70.34	3.68587
70.56	3.81599
70.78	2.93113
71	6.08301
71.22	4.52907
71.44	5.39181
71.66	6.12073
71.88	1.71637
72.1	0.824002
72.32	4.76837
72.54	8.79677
72.76	2.81422
72.98	2.03139
73.2	1.0789
73.42	2.10336
73.64	6.61665
73.86	3.53728
74.08	3.47446
74.3	1.39333
74.52	3.24866
74.74	11.145
74.96	6.14344
75.18	14.1715
75.4	11.3642
75.62	7.41327
75.84	9.35369
76.06	4.59978
76.28	0.699697
76.5	2.86777
76.72	1.07034
76.94	0.990069
77.16	2.11568
77.38	2.97762
77.6	0.047274
77.82	7.55723
78.04	6.02595
78.26	10.9791
78.48	6.94177
78.7	5.92644
78.92	9.85316
79.14	1.89606
79.36	1.88206
79.58	7.82761
79.8	5.94661
80.02	13.1733
80.24	5.39472
80.46	9.89799
80.68	7.17505
80.9	4.22712
81.12	0.630271
81.34	6.47645
81.56	0.555116
81.78	1.79103
82	3.88583
82.22	3.21426
82.44	4.04175
82.66	4.04909
82.88	8.00131
83.1	2.7017
83.32	5.5672
83.54	3.40074
83.76	9.24771
83.98	5.11292
84.2	5.79787
84.42	12.5642
84.64	7.3551
84.86	4.18461
85.08	1.20706
85.3	2.11068
85.52	7.99897
85.74	5.99279
85.96	4.95076
86.18	5.10588
86.4	10.0835
86.62	6.40576
86.84	0.572534
87.06	0.238031
87.28	6.12203
87.5	3.08614
87.72	7.9571
87.94	2.75507
88.16	5.5053
88.38	7.23187
88.6	5.78098
88.82	4.64315
89.04	12.9333
89.26	8.46035
89.48	6.99582
89.7	0.006271
89.92	3.69673
