Measurement: Powder, Xray Data XY Processed
Mineral: Baryte
Rruff sample: R050342
Ideal chemistry: BaS^6+^O_4_
Locality: Palos Verdes, Los Angeles County, California, USA
Source: California Institute of Technology
Description: Light brown fragment
Diffraction sample description: Powder
Measured chemistry: Ba_1.00_S_1.00_O_4_
Cell parameters: a: 8.882(1) b: 5.4537(9) c: 7.1569(4) alpha: 90. beta: 90. gamma: 90. volume: 346.70(5) crystal system: orthorhombic
x	intensity
5	0
5.22	10.0212
5.44	4.73492
5.66	8.42292
5.88	6.61691
6.1	10.7796
6.32	7.90907
6.54	0.806228
6.76	0.649962
6.98	4.45059
7.2	5.30943
7.42	0.991371
7.64	9.54573
7.86	6.95873
8.08	1.22673
8.3	1.56228
8.52	1.80871
8.74	10.9154
8.96	2.98533
9.18	9.22362
9.4	12.021
9.62	7.95315
9.84	8.9172
10.06	2.09181
10.28	3.18832
10.5	3.56087
10.72	3.67627
10.94	9.86345
11.16	0.007587
11.38	6.05416
11.6	3.97948
11.82	5.95711
12.04	6.00375
12.26	4.08457
12.48	6.01694
12.7	4.80364
12.92	0.165633
13.14	4.82817
13.36	6.73808
13.58	2.80156
13.8	5.93721
14.02	7.8571
14.24	3.91371
14.46	5.78093
14.68	3.68541
14.9	2.62016
15.12	3.61185
15.34	9.54379
15.56	0.540507
15.78	1.56424
16	3.46963
16.22	1.42583
16.44	3.7409
16.66	2.87865
16.88	5.91099
17.1	8.01188
17.32	0.886245
17.54	6.27391
17.76	4.42559
17.98	10.4969
18.2	3.65861
18.42	5.07037
18.64	7.01536
18.86	5.71818
19.08	5.50292
19.3	7.46757
19.52	5.4237
19.74	5.3538
19.96	12.2617
20.18	7.15603
20.4	7.28129
20.62	28.5734
20.84	2.21195
21.06	0.309943
21.28	3.52928
21.5	0.489309
21.72	1.46558
21.94	2.39844
22.16	2.30536
22.38	4.22569
22.6	10.1013
22.82	53.9111
23.04	16.6667
23.26	2.79983
23.48	2.03536
23.7	12.8826
23.92	2.77231
24.14	6.65017
24.36	2.6404
24.58	5.51418
24.8	10.2867
25.02	34.9616
25.24	6.81459
25.46	2.69999
25.68	10.2183
25.9	133.773
26.12	14.6284
26.34	1.68536
26.56	2.89021
26.78	22.0432
27	79.175
27.22	5.63328
27.44	0.152262
27.66	0.116864
27.88	5.92726
28.1	5.14627
28.32	1.46706
28.54	9.65217
28.76	99.0542
28.98	27.241
29.2	7.16366
29.42	1.16048
29.64	6.29627
29.86	1.66827
30.08	5.32513
30.3	3.26915
30.52	8.17766
30.74	1.81727
30.96	9.0565
31.18	6.83671
31.4	12.4979
31.62	68.3029
31.84	11.2249
32.06	2.8939
32.28	6.22309
32.5	3.40929
32.72	25.5359
32.94	49.1312
33.16	3.34284
33.38	4.42037
33.6	1.52085
33.82	4.76674
34.04	1.99293
34.26	1.1889
34.48	3.43046
34.7	1.67128
34.92	4.72507
35.14	2.79539
35.36	8.4201
35.58	0.39687
35.8	1.25861
36.02	3.23597
36.24	10.3625
36.46	9.43364
36.68	3.37152
36.9	5.40092
37.12	0.290125
37.34	2.1686
37.56	0.091199
37.78	0.022453
38	8.93141
38.22	5.8144
38.44	1.64391
38.66	14.5321
38.88	14.6938
39.1	5.60629
39.32	1.2414
39.54	12.0555
39.76	0.115667
39.98	0.72497
40.2	1.57876
40.42	5.64415
40.64	6.36736
40.86	28.3335
41.08	11.1903
41.3	2.4635
41.52	1.07225
41.74	4.64813
41.96	1.31947
42.18	3.98828
42.4	13.712
42.62	113.661
42.84	67.3135
43.06	95.3115
43.28	22.1861
43.5	5.57938
43.72	2.97922
43.94	11.4066
44.16	22.0756
44.38	1.16571
44.6	2.38516
44.82	4.83654
45.04	4.25502
45.26	1.6352
45.48	2.03043
45.7	10.1302
45.92	0.035481
46.14	1.06317
46.36	4.04571
46.58	0.82712
46.8	1.62673
47.02	9.57252
47.24	6.71344
47.46	0.647638
47.68	3.75981
47.9	2.72668
48.12	0.655898
48.34	5.61519
48.56	3.66191
48.78	2.75453
49	18.6725
49.22	13.709
49.44	6.72846
49.66	5.74341
49.88	3.50566
50.1	4.20901
50.32	0.204425
50.54	3.31494
50.76	2.16673
50.98	12.9718
51.2	8.86759
51.42	8.81866
51.64	4.9182
51.86	9.83949
52.08	8.68541
52.3	15.8739
52.52	3.2958
52.74	4.42907
52.96	3.64508
53.18	4.96483
53.4	6.04664
53.62	3.08901
53.84	3.05622
54.06	1.80309
54.28	7.69423
54.5	12.5442
54.72	15.4643
54.94	21.99
55.16	4.65606
55.38	7.52891
55.6	1.42098
55.82	2.58086
56.04	13.8429
56.26	3.03532
56.48	6.15929
56.7	3.28645
56.92	0.427639
57.14	2.37379
57.36	3.48765
57.58	1.70529
57.8	2.7528
58.02	5.71846
58.24	11.7422
58.46	4.75559
58.68	4.89158
58.9	3.88197
59.12	3.87351
59.34	2.85208
59.56	1.84328
59.78	1.7113
60	4.6453
60.22	8.61801
60.44	22.5554
60.66	11.7533
60.88	14.5239
61.1	7.20417
61.32	3.32867
61.54	0.39835
61.76	3.32909
61.98	4.24481
62.2	7.19537
62.42	2.14231
62.64	3.0267
62.86	1.81851
63.08	9.82426
63.3	8.87863
63.52	7.20712
63.74	2.15529
63.96	1.06292
64.18	0.997724
64.4	5.89625
64.62	4.74967
64.84	5.53567
65.06	5.38618
65.28	2.33179
65.5	10.8614
65.72	14.5319
65.94	8.05711
66.16	2.24879
66.38	3.38443
66.6	7.41589
66.82	15.4301
67.04	10.6098
67.26	1.82397
67.48	2.86084
67.7	9.89674
67.92	4.99519
68.14	4.12859
68.36	2.22375
68.58	4.00465
68.8	0.032147
69.02	9.32717
69.24	1.76007
69.46	3.93034
69.68	6.33628
69.9	5.65108
70.12	5.90511
70.34	1.10015
70.56	3.24291
70.78	3.38615
71	3.4716
71.22	7.49931
71.44	9.34365
71.66	1.08693
71.88	5.9917
72.1	2.82511
72.32	2.66775
72.54	2.65337
72.76	13.6531
72.98	5.66686
73.2	1.5657
73.42	3.59078
73.64	6.52706
73.86	6.42566
74.08	0.630462
74.3	5.30582
74.52	6.07089
74.74	5.00786
74.96	4.03345
75.18	6.12353
75.4	11.3539
75.62	5.46712
75.84	4.63666
76.06	7.88559
76.28	4.31037
76.5	1.482
76.72	3.62221
76.94	4.71501
77.16	3.78264
77.38	1.7438
77.6	7.50254
77.82	5.40822
78.04	6.50061
78.26	9.41149
78.48	6.26031
78.7	2.84889
78.92	2.72057
79.14	1.60743
79.36	0.470756
79.58	6.48113
79.8	5.45962
80.02	6.69685
80.24	6.68739
80.46	6.69162
80.68	10.7543
80.9	8.0313
81.12	3.1861
81.34	5.28276
81.56	4.41402
81.78	3.60273
82	4.65367
82.22	8.68015
82.44	1.68474
82.66	0.316285
82.88	6.56143
83.1	5.37575
83.32	1.31907
83.54	4.2214
83.76	5.17502
83.98	8.07555
84.2	7.20381
84.42	12.465
84.64	6.47858
84.86	6.19947
85.08	5.93976
85.3	4.77417
85.52	3.62268
85.74	2.47136
85.96	7.35102
86.18	3.21508
86.4	10.1508
86.62	3.75156
86.84	4.78636
87.06	5.89422
87.28	4.88444
87.5	2.71783
87.72	1.49557
87.94	6.28107
88.16	9.01104
88.38	10.752
88.6	1.47054
88.82	7.21387
89.04	9.5349
89.26	7.90257
89.48	0.277879
89.7	7.12166
89.92	10.3628
