Measurement: Powder, Xray Data XY Processed
Mineral: Bastnasite-(Ce)
Rruff sample: R050409
Ideal chemistry: CeCO_3_F
Locality: Machni, near Warsak Dam, Zagi Mountain, North-West Frontier Province, Pakistan
Source: G.R. Rossman
Description: Yellowish brown fragment
Diffraction sample description: Powder
Measured chemistry: (Ce_0.54_(La,Pr)_0.25_Nd_0.21_)_Î£=1_CO_3_F_1.00_
Cell parameters: a: 7.1050(2) b: 7.1050(2) c: 9.7538(3) alpha: 90. beta: 90. gamma: 120. volume: 426.41(2) crystal system: hexagonal
x	intensity
5	0
5.22	3.6034
5.44	13.0582
5.66	7.70066
5.88	5.55592
6.1	1.33404
6.32	6.81252
6.54	13.2886
6.76	9.83435
6.98	15.4036
7.2	12.6404
7.42	5.59316
7.64	13.0425
7.86	2.40496
8.08	5.36118
8.3	3.21645
8.52	0.968192
8.74	0.17633
8.96	11.0615
9.18	9.37837
9.4	8.81533
9.62	0.454609
9.84	4.47466
10.06	17.0659
10.28	8.7429
10.5	1.90615
10.72	2.26615
10.94	6.36821
11.16	4.48686
11.38	1.29866
11.6	0.00056
11.82	4.50071
12.04	5.71555
12.26	3.61033
12.48	8.88617
12.7	4.96231
12.92	8.07704
13.14	5.99877
13.36	1.53832
13.58	10.7091
13.8	3.7993
14.02	3.62509
14.24	0.659291
14.46	12.8553
14.68	3.6675
14.9	3.62157
15.12	9.60694
15.34	9.4215
15.56	5.2218
15.78	0.137531
16	6.60561
16.22	2.71769
16.44	19.527
16.66	5.31372
16.88	7.85711
17.1	6.6561
17.32	0.436011
17.54	4.34828
17.76	2.27681
17.98	9.06848
18.2	366.965
18.42	6.45465
18.64	12.2922
18.86	4.66979
19.08	7.12692
19.3	7.42246
19.52	3.9362
19.74	3.218
19.96	3.43947
20.18	12.9744
20.4	3.23724
20.62	1.47914
20.84	10.3088
21.06	3.35115
21.28	2.72577
21.5	4.18276
21.72	9.56706
21.94	7.28294
22.16	8.28544
22.38	6.18521
22.6	2.72138
22.82	7.69838
23.04	10.5412
23.26	2.38667
23.48	2.10684
23.7	3.59164
23.92	14.3595
24.14	6.70364
24.36	12.5138
24.58	10.3745
24.8	12.3145
25.02	127.383
25.24	56.5509
25.46	6.82117
25.68	11.0874
25.9	7.66231
26.12	7.97352
26.34	4.24687
26.56	13.7173
26.78	4.23702
27	6.29536
27.22	6.24427
27.44	12.2754
27.66	10.9973
27.88	3.91964
28.1	13.6753
28.32	0.345888
28.54	4.21606
28.76	7.11768
28.98	7.12878
29.2	1.80763
29.42	7.94576
29.64	4.79184
29.86	4.59987
30.08	1.58442
30.3	12.0883
30.52	7.99339
30.74	14.9076
30.96	26.917
31.18	393.965
31.4	26.0108
31.62	15.1936
31.84	11.1189
32.06	9.37493
32.28	1.96022
32.5	9.40977
32.72	9.95685
32.94	12.2328
33.16	6.43046
33.38	6.57292
33.6	4.59056
33.82	6.72081
34.04	7.75465
34.26	5.74192
34.48	19.4464
34.7	1.94886
34.92	1.29977
35.14	7.57051
35.36	10.5777
35.58	0.708039
35.8	3.61725
36.02	1.48255
36.24	9.43817
36.46	4.42863
36.68	4.44811
36.9	28.4117
37.12	13.5448
37.34	13.1348
37.56	4.35225
37.78	11.2634
38	2.10522
38.22	8.35979
38.44	7.3441
38.66	7.1508
38.88	10.0646
39.1	7.04344
39.32	3.11777
39.54	4.04353
39.76	14.3843
39.98	6.54911
40.2	3.53699
40.42	2.65761
40.64	4.17333
40.86	4.41105
41.08	7.64904
41.3	2.76546
41.52	0.893357
41.74	3.94905
41.96	5.68646
42.18	5.38536
42.4	6.25484
42.62	0.056097
42.84	5.39993
43.06	16.7798
43.28	5.95445
43.5	6.29742
43.72	1.5918
43.94	16.7868
44.16	188.003
44.38	17.7089
44.6	2.60236
44.82	6.16831
45.04	93.2309
45.26	82.5849
45.48	8.52898
45.7	10.3853
45.92	2.80603
46.14	2.23972
46.36	2.69517
46.58	3.0232
46.8	6.20484
47.02	2.71125
47.24	2.12905
47.46	3.06623
47.68	10.9846
47.9	10.3736
48.12	219.511
48.34	27.4241
48.56	5.6961
48.78	4.86692
49	3.29275
49.22	10.4981
49.44	9.77846
49.66	5.10842
49.88	9.28874
50.1	7.46725
50.32	0.586956
50.54	16.0917
50.76	3.08623
50.98	0.003501
51.2	0.496002
51.42	60.4457
51.64	13.5718
51.86	7.07774
52.08	7.16703
52.3	3.71871
52.52	5.44444
52.74	1.79533
52.96	4.93541
53.18	7.98793
53.4	3.73338
53.62	0.865641
53.84	0.028434
54.06	3.57452
54.28	8.10325
54.5	11.889
54.72	7.74289
54.94	44.8417
55.16	67.5149
55.38	3.73836
55.6	11.67
55.82	1.65233
56.04	5.5248
56.26	2.73099
56.48	5.13216
56.7	3.5858
56.92	0.174212
57.14	5.81109
57.36	2.84975
57.58	6.70588
57.8	6.74488
58.02	3.82635
58.24	3.40741
58.46	0.513374
58.68	12.2786
58.9	38.4652
59.12	9.55196
59.34	5.65898
59.56	4.9099
59.78	4.00079
60	7.15076
60.22	5.71954
60.44	6.65481
60.66	6.52198
60.88	15.4125
61.1	8.58013
61.32	5.17093
61.54	12.6799
61.76	7.44117
61.98	9.16708
62.2	0.017419
62.42	3.53214
62.64	5.92491
62.86	50.0972
63.08	8.5108
63.3	4.70113
63.52	1.15032
63.74	7.90716
63.96	4.05784
64.18	6.20145
64.4	1.21667
64.62	11.8571
64.84	14.2297
65.06	30.6215
65.28	8.64129
65.5	8.36529
65.72	2.45184
65.94	5.44895
66.16	11.6326
66.38	3.61702
66.6	2.77125
66.82	2.7757
67.04	2.46116
67.26	7.57016
67.48	0.239488
67.7	4.24153
67.92	11.2847
68.14	0.705444
68.36	6.31254
68.58	12.3595
68.8	1.48344
69.02	3.27952
69.24	2.21493
69.46	0.974376
69.68	5.81355
69.9	10.826
70.12	30.5542
70.34	14.7105
70.56	1.38981
70.78	7.29966
71	1.54824
71.22	6.59684
71.44	6.54944
71.66	2.46046
71.88	0.272028
72.1	6.11614
72.32	2.86257
72.54	1.89031
72.76	6.75573
72.98	17.5386
73.2	31.3194
73.42	10.9445
73.64	5.66678
73.86	7.93951
74.08	7.9786
74.3	6.17903
74.52	16.4792
74.74	11.7249
74.96	9.80457
75.18	7.85544
75.4	11.1316
75.62	5.41937
75.84	0.794954
76.06	12.8457
76.28	0.183294
76.5	0.064008
76.72	6.10799
76.94	8.09379
77.16	0.980232
77.38	1.85611
77.6	5.78387
77.82	10.7987
78.04	11.018
78.26	4.73369
78.48	2.61537
78.7	12.4445
78.92	4.31532
79.14	10.001
79.36	3.74999
79.58	2.67376
79.8	7.02485
80.02	12.7082
80.24	16.2774
80.46	7.63299
80.68	1.30028
80.9	2.04415
81.12	16.8049
81.34	9.69713
81.56	11.8573
81.78	20.7692
82	4.80566
82.22	8.46018
82.44	4.28693
82.66	1.46325
82.88	3.65383
83.1	1.13929
83.32	6.07666
83.54	11.5226
83.76	13.7135
83.98	24.7935
84.2	15.0653
84.42	13.0866
84.64	5.37005
84.86	5.92507
85.08	2.13901
85.3	2.36288
85.52	10.5684
85.74	1.92257
85.96	0.973098
86.18	10.2538
86.4	10.6947
86.62	2.67323
86.84	3.85033
87.06	11.7655
87.28	2.90541
87.5	3.08602
87.72	14.1118
87.94	3.30119
88.16	5.2502
88.38	2.18816
88.6	5.09857
88.82	9.6092
89.04	8.67445
89.26	9.73516
89.48	5.62982
89.7	0.93768
89.92	1.09272
