Measurement: Powder, Xray Data XY Processed
Mineral: Bastnasite-(Ce)
Rruff sample: R060550
Ideal chemistry: CeCO_3_F
Locality: Zagni Mountains, Pakistan
Source: Gemological Institute of America
Description: Brown water worn pebble
Diffraction sample description: Powder
Measured chemistry: (Ce_0.56_(La,Pr)_0.26_Nd_0.18_)_Î£=1_CO_3_F_1.00_
Cell parameters: a: 7.1128(1) b: 7.1128(1) c: 9.7591(3) alpha: 90. beta: 90. gamma: 120. volume: 427.58(2) crystal system: hexagonal
x	intensity
5	0
5.22	13.129
5.44	5.44
5.66	16.465
5.88	0.728
6.1	1.94
6.32	7.851
6.54	3.92
6.76	13.925
6.98	18.788
7.2	19.361
7.42	6.366
7.64	7.199
7.86	3.104
8.08	14.434
8.3	5.611
8.52	0.716
8.74	4.662
8.96	3.321
9.18	13.038
9.4	9.724
9.62	10.601
9.84	10.446
10.06	3.914
10.28	13.611
10.5	7.802
10.72	1.31
10.94	4.617
11.16	1.166
11.38	1.217
11.6	0.522
11.82	0.181
12.04	10.234
12.26	11.515
12.48	5.74
12.7	3.851
12.92	6.803
13.14	7.472
13.36	1.528
13.58	0.633
13.8	0.292
14.02	0.281
14.24	1.681
14.46	0.459
14.68	11.717
14.9	5.557
15.12	5.624
15.34	5.521
15.56	10.44
15.78	8.406
16	0.458
16.22	4.482
16.44	10.346
16.66	4.242
16.88	1.822
17.1	5.583
17.32	3.47
17.54	5.208
17.76	1.103
17.98	10.05
18.2	229.005
18.42	10.35
18.64	5.142
18.86	4.366
19.08	6.707
19.3	2.232
19.52	8.463
19.74	6.764
19.96	1.055
20.18	6.269
20.4	9.421
20.62	6.415
20.84	3.384
21.06	3.546
21.28	5.423
21.5	0.262
21.72	7.009
21.94	9.959
22.16	4.887
22.38	3.828
22.6	12.969
22.82	3.03
23.04	9.018
23.26	8.743
23.48	4.472
23.7	5.328
23.92	6.166
24.14	1.928
24.36	5.609
24.58	0.779
24.8	16.625
25.02	176.458
25.24	29.553
25.46	4.695
25.68	8.826
25.9	5.031
26.12	4.263
26.34	2.447
26.56	11.703
26.78	3.954
27	1.003
27.22	5.088
27.44	3.277
27.66	0.987
27.88	0.881
28.1	7.914
28.32	6.832
28.54	5.889
28.76	7.018
28.98	0.997
29.2	3.648
29.42	8.264
29.64	4.009
29.86	0.573
30.08	4.145
30.3	4.803
30.52	10.43
30.74	8.213
30.96	21.247
31.18	202.051
31.4	25.181
31.62	10.341
31.84	10.557
32.06	8.188
32.28	7.536
32.5	4.838
32.72	4.213
32.94	4.618
33.16	0.636
33.38	5.861
33.6	6.936
33.82	5.13
34.04	5.306
34.26	0.519
34.48	1.353
34.7	0.675
34.92	2.514
35.14	4.605
35.36	5.507
35.58	5.42
35.8	0.393
36.02	1.216
36.24	1
36.46	5.912
36.68	4.916
36.9	24.154
37.12	7.293
37.34	7.277
37.56	1.417
37.78	7.55
38	8.773
38.22	5.825
38.44	7.985
38.66	0.023
38.88	2.961
39.1	4.607
39.32	2.403
39.54	3.271
39.76	7.401
39.98	3.12
40.2	7.422
40.42	7.235
40.64	6.208
40.86	3.234
41.08	3.458
41.3	9.398
41.52	0.372
41.74	7.393
41.96	3.259
42.18	7.001
42.4	2.218
42.62	5.679
42.84	7.374
43.06	11.035
43.28	11.358
43.5	6.071
43.72	0.284
43.94	19.381
44.16	76.053
44.38	3.956
44.6	10.847
44.82	3.584
45.04	143.835
45.26	24.264
45.48	6.518
45.7	6.816
45.92	3.448
46.14	7.884
46.36	3.287
46.58	5.773
46.8	0.881
47.02	5.827
47.24	0.374
47.46	6.617
47.68	6.425
47.9	12.557
48.12	71.497
48.34	14.388
48.56	8.384
48.78	9.518
49	2.309
49.22	6.579
49.44	2.291
49.66	7.042
49.88	4.002
50.1	6.865
50.32	0.92
50.54	3.887
50.76	2.77
50.98	6.04
51.2	5.905
51.42	28.859
51.64	5.758
51.86	2.21
52.08	1.843
52.3	1.125
52.52	3.053
52.74	3.264
52.96	1.341
53.18	3.25
53.4	4.839
53.62	4.727
53.84	5.657
54.06	4.559
54.28	8.245
54.5	9.282
54.72	10.63
54.94	100.49
55.16	18.257
55.38	3.301
55.6	5.271
55.82	5.312
56.04	2.461
56.26	2.62
56.48	13.682
56.7	12.02
56.92	4.839
57.14	9.487
57.36	4.66
57.58	0.698
57.8	4.616
58.02	0.626
58.24	0.393
58.46	4.93
58.68	17.003
58.9	36.258
59.12	4.143
59.34	0.432
59.56	2.616
59.78	3.657
60	3.836
60.22	13.915
60.44	10.083
60.66	5.294
60.88	9.028
61.1	10.05
61.32	4.941
61.54	1.716
61.76	9.441
61.98	7.388
62.2	0.642
62.42	13.496
62.64	6.477
62.86	12.431
63.08	10.363
63.3	9.346
63.52	3.228
63.74	4.141
63.96	3.156
64.18	0.284
64.4	9.522
64.62	8.459
64.84	36.391
65.06	22.459
65.28	8.657
65.5	2.582
65.72	4.617
65.94	5.657
66.16	6.681
66.38	4.83
66.6	6.619
66.82	3.566
67.04	5.763
67.26	0.79
67.48	3.911
67.7	2.819
67.92	9.079
68.14	5.224
68.36	5.288
68.58	4.309
68.8	3.165
69.02	0.853
69.24	10.159
69.46	10.865
69.68	12.079
69.9	15.777
70.12	17.849
70.34	8.745
70.56	9.645
70.78	0.557
71	10.49
71.22	4.37
71.44	4.402
71.66	3.156
71.88	2.922
72.1	7.586
72.32	5.326
72.54	3.693
72.76	7.451
72.98	94.301
73.2	50.227
73.42	11.217
73.64	12.3
73.86	4.276
74.08	8.766
74.3	6.095
74.52	14.422
74.74	2.702
74.96	2.446
75.18	9.747
75.4	9.948
75.62	4.118
75.84	3.172
76.06	6.278
76.28	6.414
76.5	12.061
76.72	3.882
76.94	5.677
77.16	9.526
77.38	2.115
77.6	6.137
77.82	5.033
78.04	3.307
78.26	7.261
78.48	7.267
78.7	7.073
78.92	3.994
79.14	4.988
79.36	5.216
79.58	6.204
79.8	15.129
80.02	10.863
80.24	5.676
80.46	5.122
80.68	4.839
80.9	3.763
81.12	11.817
81.34	17.973
81.56	5.932
81.78	36.763
82	23.775
82.22	4.122
82.44	2.186
82.66	0.738
82.88	0.343
83.1	5.438
83.32	2.493
83.54	11.41
83.76	18.644
83.98	31.769
84.2	13.77
84.42	7.081
84.64	1.848
84.86	7.149
85.08	12.305
85.3	2.442
85.52	3.599
85.74	1.68
85.96	1.121
86.18	6.596
86.4	4.748
86.62	3.806
86.84	5.756
87.06	6.819
87.28	2.953
87.5	4.938
87.72	3.923
87.94	1.977
88.16	5.095
88.38	10.916
88.6	5.713
88.82	1.746
89.04	2.595
89.26	3.223
89.48	5.295
89.7	2.732
89.92	2.632
