Measurement: Powder, Xray Data XY Processed
Mineral: Bastnasite-(Ce)
Rruff sample: R060629
Ideal chemistry: CeCO_3_F
Locality: Pakistan
Source: Gemological Institute of America
Description: Orange gemmy fragment
Diffraction sample description: Powder
Measured chemistry: (Ce_0.53_Nd_0.25_La_0.22_)_Î£=1_CO_3_F_1.00_
Cell parameters: a: 7.0954(4) b: 7.0954(4) c: 9.7398(6) alpha: 90. beta: 90. gamma: 120. volume: 424.66(4) crystal system: hexagonal
x	intensity
5	0
5.22	6.10747
5.44	1.62804
5.66	11.3208
5.88	6.68019
6.1	4.01168
6.32	7.48236
6.54	11.9811
6.76	9.9212
6.98	9.6181
7.2	13.2706
7.42	11.9493
7.64	4.0973
7.86	5.67451
8.08	5.13259
8.3	3.31704
8.52	4.39355
8.74	8.16149
8.96	1.94711
9.18	3.53573
9.4	7.22613
9.62	9.93008
9.84	14.6995
10.06	2.72932
10.28	9.59209
10.5	4.59701
10.72	5.784
10.94	7.22525
11.16	2.48681
11.38	1.93659
11.6	2.33425
11.82	4.7883
12.04	8.89963
12.26	5.08472
12.48	5.26325
12.7	0.671736
12.92	2.55463
13.14	2.56278
13.36	4.33444
13.58	4.34127
13.8	0.136194
14.02	3.93628
14.24	0.253255
14.46	8.28074
14.68	7.27935
14.9	7.18564
15.12	1.08974
15.34	1.94209
15.56	2.17698
15.78	3.46284
16	0.501456
16.22	3.49279
16.44	5.49946
16.66	5.21436
16.88	6.15566
17.1	9.11233
17.32	6.05786
17.54	3.16208
17.76	8.22652
17.98	2.1816
18.2	38.941
18.42	10.9049
18.64	1.1479
18.86	4.72151
19.08	0.271746
19.3	7.87
19.52	0.123996
19.74	5.89849
19.96	2.94934
20.18	9.73823
20.4	4.87945
20.62	4.85397
20.84	3.87878
21.06	10.0249
21.28	9.25015
21.5	1.52124
21.72	2.40722
21.94	4.53812
22.16	1.6123
22.38	1.53046
22.6	8.42029
22.82	2.61922
23.04	4.75858
23.26	1.68456
23.48	7.71738
23.7	2.43193
23.92	2.20614
24.14	9.06965
24.36	6.88607
24.58	5.83351
24.8	14.8371
25.02	13.9085
25.24	127.618
25.46	5.4991
25.68	2.54426
25.9	5.61019
26.12	7.70226
26.34	3.76015
26.56	3.13839
26.78	0.315979
27	0.332695
27.22	4.32423
27.44	5.46137
27.66	1.58085
27.88	8.62509
28.1	4.50591
28.32	1.59297
28.54	2.63716
28.76	0.438849
28.98	4.99456
29.2	1.91999
29.42	8.90911
29.64	3.82594
29.86	5.52862
30.08	3.30309
30.3	2.12712
30.52	7.9644
30.74	1.90959
30.96	3.89753
31.18	148.7
31.4	25.2453
31.62	6.37374
31.84	4.35694
32.06	7.41784
32.28	1.52119
32.5	2.87848
32.72	3.00996
32.94	8.3471
33.16	2.33735
33.38	8.18595
33.6	9.36097
33.82	7.42439
34.04	5.35393
34.26	4.58871
34.48	1.77746
34.7	0.215235
34.92	10.504
35.14	1.48543
35.36	2.47299
35.58	7.38431
35.8	0.280811
36.02	5.16215
36.24	2.169
36.46	6.1426
36.68	5.96466
36.9	5.83762
37.12	13.071
37.34	3.15934
37.56	1.1653
37.78	9.28966
38	3.44897
38.22	1.73833
38.44	2.81121
38.66	4.72114
38.88	0.254566
39.1	2.70149
39.32	0.463871
39.54	3.48393
39.76	8.38602
39.98	7.44712
40.2	2.16205
40.42	8.02373
40.64	1.88213
40.86	5.06977
41.08	2.06596
41.3	0.183198
41.52	6.14568
41.74	7.13063
41.96	6.34736
42.18	5.30675
42.4	5.06649
42.62	10.1317
42.84	7.90627
43.06	8.62444
43.28	6.117
43.5	3.83853
43.72	2.69181
43.94	6.44302
44.16	156.25
44.38	50.7266
44.6	11.7286
44.82	3.92142
45.04	17.9064
45.26	34.1084
45.48	9.30595
45.7	9.54785
45.92	5.91324
46.14	5.94693
46.36	4.40827
46.58	6.90887
46.8	1.98789
47.02	2.93758
47.24	0.762503
47.46	0.584715
47.68	2.5538
47.9	7.43365
48.12	42.2323
48.34	47.2089
48.56	10.2244
48.78	2.96828
49	0.178369
49.22	1.98819
49.44	7.2249
49.66	1.52129
49.88	2.68003
50.1	0.310489
50.32	1.82828
50.54	1.95061
50.76	3.9413
50.98	7.17045
51.2	2.22489
51.42	13.2917
51.64	10.2629
51.86	5.35495
52.08	1.7319
52.3	3.52999
52.52	1.30927
52.74	9.9099
52.96	4.9564
53.18	2.00674
53.4	1.18708
53.62	7.87833
53.84	0.506776
54.06	0.677318
54.28	1.14581
54.5	0.786072
54.72	5.65137
54.94	5.43821
55.16	61.4781
55.38	6.4073
55.6	3.16175
55.82	3.24268
56.04	1.14585
56.26	0.207255
56.48	2.26539
56.7	2.40598
56.92	10.0078
57.14	2.05407
57.36	13.0829
57.58	1.94022
57.8	5.02407
58.02	1.87309
58.24	5.05844
58.46	8.16305
58.68	7.3405
58.9	33.627
59.12	11.5719
59.34	6.17896
59.56	1.13602
59.78	2.07843
60	6.09254
60.22	5.29582
60.44	4.28125
60.66	2.28568
60.88	6.46558
61.1	5.47992
61.32	4.37365
61.54	4.3127
61.76	4.17974
61.98	0.847072
62.2	3.1435
62.42	5.18541
62.64	2.06489
62.86	13.9807
63.08	12.9484
63.3	2.10321
63.52	5.93849
63.74	4.87099
63.96	3.85559
64.18	4.84591
64.4	0.937258
64.62	4.84796
64.84	6.05159
65.06	21.9232
65.28	15.8687
65.5	5.95125
65.72	5.76039
65.94	3.75751
66.16	7.8324
66.38	9.91818
66.6	6.00924
66.82	4.01033
67.04	3.09501
67.26	0.888833
67.48	6.24279
67.7	0.355532
67.92	1.49814
68.14	3.663
68.36	6.79338
68.58	9.8342
68.8	1.17678
69.02	9.74422
69.24	9.65649
69.46	6.57088
69.68	2.43543
69.9	8.22321
70.12	11.3185
70.34	12.1566
70.56	1.99074
70.78	1.79216
71	1.00423
71.22	4.04531
71.44	6.99712
71.66	7.01327
71.88	5.07039
72.1	3.85299
72.32	6.72166
72.54	7.39003
72.76	1.63273
72.98	8.6623
73.2	24.7274
73.42	19.433
73.64	4.307
73.86	3.70393
74.08	7.43059
74.3	0.438836
74.52	20.6008
74.74	6.78827
74.96	1.942
75.18	4.74391
75.4	8.77027
75.62	1.6375
75.84	2.70596
76.06	0.774897
76.28	9.91099
76.5	0.231985
76.72	4.69458
76.94	1.66333
77.16	9.55291
77.38	7.54638
77.6	2.54749
77.82	0.457106
78.04	2.5067
78.26	6.02851
78.48	11.2143
78.7	6.33478
78.92	10.3153
79.14	7.24987
79.36	5.16936
79.58	0.934002
79.8	6.92081
80.02	1.76802
80.24	10.5033
80.46	4.18376
80.68	2.51729
80.9	3.18736
81.12	1.23558
81.34	4.66401
81.56	7.96605
81.78	4.16146
82	10.3012
82.22	14.494
82.44	6.73304
82.66	4.95215
82.88	0.031686
83.1	3.18721
83.32	7.2745
83.54	6.34772
83.76	6.42656
83.98	16.0852
84.2	15.043
84.42	13.0847
84.64	8.0461
84.86	0.107235
85.08	0.035417
85.3	2.38501
85.52	4.55676
85.74	13.675
85.96	3.75159
86.18	2.8658
86.4	0.255589
86.62	5.88331
86.84	1.93368
87.06	1.87862
87.28	3.97433
87.5	4.98769
87.72	1.76109
87.94	2.73909
88.16	3.77621
88.38	0.062123
88.6	4.97689
88.82	3.95656
89.04	7.01423
89.26	7.96579
89.48	11.9858
89.7	2.11722
89.92	1.98554
