Measurement: Powder, Xray Data XY Processed
Mineral: Bastnasite-(Ce)
Rruff sample: R060359
Ideal chemistry: CeCO_3_F
Locality: Zagi Mountain, near Hammedabad, Khaffor Dehri, North-West Frontier Province, Pakistan
Source: Herb Obodda
Description: Yellowish-brown pyramidal crystal
Diffraction sample description: Powder
Measured chemistry: (Ce_0.54_(La,Pr)_0.23_Nd_0.22_Y_0.01_)_Î£=1_CO_3_F_1.00_
Cell parameters: a: 7.1013(1) b: 7.1013(1) c: 9.7515(3) alpha: 90. beta: 90. gamma: 120. volume: 425.88(1) crystal system: hexagonal
x	intensity
5	0
5.22	0.866063
5.44	12.2082
5.66	2.63243
5.88	9.1806
6.1	6.50653
6.32	2.95952
6.54	8.58943
6.76	6.12128
6.98	12.8756
7.2	16.1582
7.42	3.24461
7.64	1.43603
7.86	2.38303
8.08	1.72233
8.3	3.62047
8.52	1.47992
8.74	7.34703
8.96	5.98152
9.18	5.58344
9.4	8.97234
9.62	18.8468
9.84	6.77596
10.06	13.6183
10.28	7.55349
10.5	9.69234
10.72	1.99752
10.94	1.68581
11.16	3.64993
11.38	2.87947
11.6	0.614081
11.82	4.62677
12.04	3.89452
12.26	5.85963
12.48	7.80346
12.7	3.86583
12.92	4.77816
13.14	0.119329
13.36	5.87974
13.58	4.01762
13.8	5.04913
14.02	4.74392
14.24	5.76589
14.46	3.61864
14.68	7.60635
14.9	6.65513
15.12	0.541837
15.34	6.85439
15.56	1.61059
15.78	5.83505
16	8.58298
16.22	5.78842
16.44	11.7517
16.66	5.61594
16.88	6.52606
17.1	18.4191
17.32	3.23434
17.54	8.19733
17.76	8.80147
17.98	7.73818
18.2	69.2691
18.42	4.51019
18.64	4.46995
18.86	1.50086
19.08	4.56222
19.3	2.77315
19.52	5.9962
19.74	0.226117
19.96	3.262
20.18	2.37459
20.4	4.64712
20.62	1.62029
20.84	0.526001
21.06	2.50784
21.28	10.664
21.5	2.10237
21.72	6.09204
21.94	0.870363
22.16	4.08104
22.38	4.2403
22.6	7.28295
22.82	7.08775
23.04	5.09459
23.26	11.0191
23.48	1.04735
23.7	7.47488
23.92	0.854242
24.14	0.046638
24.36	6.65579
24.58	8.48143
24.8	14.2683
25.02	31.2966
25.24	49.3252
25.46	12.2491
25.68	1.1467
25.9	9.07038
26.12	11.3089
26.34	0.612112
26.56	2.7522
26.78	5.97407
27	1.1061
27.22	4.45167
27.44	2.76391
27.66	1.73397
27.88	8.7917
28.1	7.88653
28.32	2.90187
28.54	2.88054
28.76	4.72464
28.98	4.68533
29.2	8.44456
29.42	4.18345
29.64	1.61936
29.86	6.07177
30.08	0.813328
30.3	8.51913
30.52	3.26401
30.74	8.10232
30.96	10.1729
31.18	362.216
31.4	32.1323
31.62	4.47499
31.84	4.83982
32.06	10.0632
32.28	3.45531
32.5	3.74204
32.72	1.27126
32.94	11.6491
33.16	1.56578
33.38	1.47835
33.6	5.5878
33.82	1.67489
34.04	3.53486
34.26	3.27659
34.48	1.24716
34.7	4.17961
34.92	7.11621
35.14	6.21333
35.36	4.17122
35.58	3.29731
35.8	3.29784
36.02	5.31909
36.24	12.3605
36.46	1.4024
36.68	8.73548
36.9	46.7642
37.12	7.90576
37.34	7.16403
37.56	4.00196
37.78	4.16587
38	4.16844
38.22	0.804964
38.44	4.48628
38.66	1.51476
38.88	2.57911
39.1	5.26698
39.32	3.23845
39.54	1.09207
39.76	8.90374
39.98	8.22086
40.2	2.00273
40.42	19.9772
40.64	3.84382
40.86	4.019
41.08	6.2545
41.3	2.42817
41.52	3.71587
41.74	2.95752
41.96	4.99886
42.18	2.74154
42.4	7.33418
42.62	0.949812
42.84	6.7179
43.06	2.16619
43.28	10.5832
43.5	6.90011
43.72	0.512777
43.94	2.8262
44.16	88.2265
44.38	32.9663
44.6	3.98243
44.82	3.07056
45.04	24.5606
45.26	86.7799
45.48	15.0898
45.7	0.641478
45.92	1.12275
46.14	8.30926
46.36	5.92066
46.58	10.2412
46.8	5.58256
47.02	3.66705
47.24	7.41763
47.46	4.331
47.68	2.67623
47.9	7.72754
48.12	37.667
48.34	49.7086
48.56	9.81532
48.78	6.68271
49	11.9842
49.22	9.97039
49.44	3.93658
49.66	9.87743
49.88	0.753909
50.1	6.55054
50.32	3.37746
50.54	0.18925
50.76	3.946
50.98	5.90456
51.2	5.8298
51.42	14.7795
51.64	27.8731
51.86	0.964003
52.08	6.29389
52.3	4.43433
52.52	5.48205
52.74	4.53545
52.96	3.84924
53.18	3.02597
53.4	1.92926
53.62	5.86264
53.84	1.42718
54.06	6.25078
54.28	7.11116
54.5	5.97408
54.72	5.82109
54.94	4.90332
55.16	27.0505
55.38	2.75914
55.6	1.54761
55.82	3.91488
56.04	4.01027
56.26	3.05986
56.48	4.27107
56.7	8.43792
56.92	5.40418
57.14	1.36946
57.36	2.40237
57.58	6.27101
57.8	13.3004
58.02	5.31535
58.24	2.14696
58.46	4.53762
58.68	2.59558
58.9	38.521
59.12	9.50042
59.34	2.49442
59.56	3.56659
59.78	2.62695
60	6.67954
60.22	0.885452
60.44	4.2151
60.66	3.16131
60.88	3.77727
61.1	1.8418
61.32	2.90533
61.54	1.88338
61.76	3.83584
61.98	6.72859
62.2	5.54842
62.42	1.62128
62.64	8.66953
62.86	25.3848
63.08	24.2165
63.3	4.38302
63.52	3.48217
63.74	0.672342
63.96	10.209
64.18	4.17615
64.4	3.16082
64.62	7.24567
64.84	4.29628
65.06	13.0656
65.28	1.05306
65.5	8.15067
65.72	6.06882
65.94	2.00305
66.16	4.22992
66.38	6.61404
66.6	2.85256
66.82	6.84267
67.04	4.03032
67.26	9.92219
67.48	4.97351
67.7	11.0677
67.92	4.19983
68.14	6.22418
68.36	1.10248
68.58	11.9795
68.8	1.91184
69.02	4.72158
69.24	2.64531
69.46	2.4994
69.68	8.4435
69.9	9.58187
70.12	39.6222
70.34	14.4798
70.56	6.60277
70.78	9.83453
71	7.85692
71.22	0.248976
71.44	4.8131
71.66	0.290267
71.88	1.72127
72.1	2.5246
72.32	10.131
72.54	1.77788
72.76	4.47683
72.98	11.1491
73.2	32.928
73.42	17.678
73.64	1.46467
73.86	15.5408
74.08	6.82271
74.3	1.08482
74.52	20.4327
74.74	15.8401
74.96	6.15814
75.18	4.55999
75.4	2.77412
75.62	8.85301
75.84	4.23276
76.06	8.43686
76.28	2.25016
76.5	0.43449
76.72	3.35149
76.94	6.24457
77.16	1.05376
77.38	2.98903
77.6	3.79839
77.82	6.10724
78.04	1.98352
78.26	4.73762
78.48	6.87615
78.7	2.65225
78.92	2.54723
79.14	1.25071
79.36	8.07574
79.58	3.12741
79.8	10.1964
80.02	24.1335
80.24	8.5431
80.46	7.39179
80.68	11.1663
80.9	3.73917
81.12	3.63511
81.34	7.56069
81.56	6.63943
81.78	2.18977
82	20.9196
82.22	19.1663
82.44	8.22538
82.66	0.634718
82.88	3.46259
83.1	4.50642
83.32	4.53977
83.54	5.71897
83.76	7.70496
83.98	11.7854
84.2	20.4427
84.42	31.2182
84.64	1.37236
84.86	1.51148
85.08	4.8785
85.3	5.97352
85.52	2.19279
85.74	2.47326
85.96	4.46934
86.18	4.52177
86.4	0.647135
86.62	7.73691
86.84	11.8979
87.06	4.86649
87.28	1.85682
87.5	4.63833
87.72	4.57767
87.94	3.59489
88.16	5.49678
88.38	8.5398
88.6	3.63922
88.82	7.58273
89.04	2.40614
89.26	4.35779
89.48	8.44723
89.7	0.658588
89.92	2.7626
