Measurement: Powder, Xray Data XY Processed
Mineral: Baumhauerite
Rruff sample: R050429
Ideal chemistry: Pb^2+^_12_As^3+^_16_S^2-^_36_
Locality: Binntal, Valais, Switzerland
Source: University of Arizona Mineral Museum
Description: Lead gray metallic with iridescent tarnish and conchoidal fracture
Diffraction sample description: Powder, cell parameters are from single crystal
Cell parameters: a: 22.795(8) b: 8.352(3) c: 7.890(3) alpha: 90.07(1) beta: 97.35(1) gamma: 89.89(1) volume: 1490(2) crystal system: triclinic
x	intensity
5	0
5.22	9.134
5.44	6.334
5.66	6.051
5.88	1.895
6.1	0.549
6.32	9.897
6.54	7.754
6.76	2.753
6.98	7.839
7.2	0.07
7.42	7.352
7.64	8.854
7.86	5.114
8.08	0.571
8.3	5.76
8.52	3.918
8.74	0.14
8.96	1.3
9.18	1.523
9.4	4.707
9.62	8.519
9.84	5.307
10.06	2.105
10.28	4.042
10.5	2.717
10.72	10.413
10.94	4.467
11.16	1.949
11.38	0.393
11.6	3.718
11.82	4.516
12.04	0.286
12.26	4.451
12.48	7.78
12.7	4.032
12.92	7.419
13.14	0.834
13.36	7.752
13.58	2.917
13.8	9.993
14.02	8.997
14.24	1.845
14.46	12.674
14.68	10.621
14.9	4.365
15.12	7.181
15.34	0.24
15.56	6.62
15.78	2.56
16	5.531
16.22	5.542
16.44	8.601
16.66	6.576
16.88	0.428
17.1	7.444
17.32	5.514
17.54	1.487
17.76	5.61
17.98	13.335
18.2	10.175
18.42	3.336
18.64	7.41
18.86	5.451
19.08	3.3
19.3	4.035
19.52	3.769
19.74	2.632
19.96	3.474
20.18	6.856
20.4	8.39
20.62	5.92
20.84	3.356
21.06	6.013
21.28	8.276
21.5	16.693
21.72	25.534
21.94	7.552
22.16	1.288
22.38	6.964
22.6	4.557
22.82	6.114
23.04	7.649
23.26	4.504
23.48	7.517
23.7	12.827
23.92	6.137
24.14	6.759
24.36	10.8
24.58	1.599
24.8	2.263
25.02	22.753
25.24	7.592
25.46	20.502
25.68	4.317
25.9	24.991
26.12	14.801
26.34	0.012
26.56	14.969
26.78	10.187
27	7.1
27.22	3.896
27.44	0.792
27.66	49.9
27.88	15.281
28.1	17.679
28.32	9.519
28.54	9.807
28.76	4.415
28.98	1.962
29.2	3.275
29.42	8.814
29.64	6.14
29.86	12.404
30.08	12.547
30.3	51.117
30.52	21.314
30.74	2.441
30.96	5.387
31.18	9.33
31.4	19.424
31.62	2.604
31.84	8.635
32.06	15.522
32.28	17.747
32.5	44.463
32.72	13.758
32.94	15.795
33.16	11.798
33.38	1.585
33.6	5.521
33.82	4.84
34.04	10.68
34.26	4.566
34.48	1.425
34.7	7.387
34.92	8.847
35.14	8.939
35.36	0.052
35.58	0.387
35.8	0.257
36.02	17.797
36.24	14.964
36.46	14.145
36.68	2.059
36.9	2.981
37.12	2.726
37.34	1.245
37.56	0.246
37.78	2.619
38	7.274
38.22	12.126
38.44	17.664
38.66	5.959
38.88	11.886
39.1	4.593
39.32	1.319
39.54	5.188
39.76	2.212
39.98	7.823
40.2	6.305
40.42	18.168
40.64	13.382
40.86	6.344
41.08	9.065
41.3	0.887
41.52	6.247
41.74	12.824
41.96	4.868
42.18	7.876
42.4	0.298
42.62	6.972
42.84	5.972
43.06	14.085
43.28	18.236
43.5	8.389
43.72	10.727
43.94	10.796
44.16	7.379
44.38	4.754
44.6	9.009
44.82	4.317
45.04	2.451
45.26	3.92
45.48	9.974
45.7	8.823
45.92	3.472
46.14	7.825
46.36	1.04
46.58	9.77
46.8	12.715
47.02	4.807
47.24	12.718
47.46	10.466
47.68	5.765
47.9	0.143
48.12	4.85
48.34	4.434
48.56	0.342
48.78	7.426
49	10.08
49.22	8.585
49.44	9.808
49.66	6.861
49.88	4.234
50.1	8.096
50.32	1.219
50.54	21.546
50.76	7.952
50.98	1.326
51.2	5.906
51.42	5.793
51.64	3.106
51.86	1.867
52.08	12.937
52.3	12.088
52.52	9.625
52.74	7.484
52.96	5.123
53.18	0.373
53.4	11.344
53.62	10.757
53.84	1.729
54.06	8.361
54.28	6.473
54.5	4.333
54.72	15.693
54.94	11.593
55.16	5.75
55.38	6.437
55.6	3.124
55.82	1.511
56.04	1.135
56.26	18.266
56.48	47.152
56.7	5.723
56.92	19.639
57.14	0.45
57.36	0.741
57.58	0.149
57.8	0.654
58.02	3.97
58.24	5.216
58.46	13.13
58.68	7.12
58.9	9.1
59.12	8.238
59.34	14.119
59.56	2.93
59.78	8.458
60	11.325
60.22	2.14
60.44	9.24
60.66	6.885
60.88	0.047
61.1	3.198
61.32	0.941
61.54	7.066
61.76	5.537
61.98	0.848
62.2	5.01
62.42	7.151
62.64	5.916
62.86	0.049
63.08	7.328
63.3	7.632
63.52	0.167
63.74	11.903
63.96	0.927
64.18	8.303
64.4	9.329
64.62	0.708
64.84	1.26
65.06	10.199
65.28	9.176
65.5	6.208
65.72	12.157
65.94	0.075
66.16	3.007
66.38	0.922
66.6	4.421
66.82	16.59
67.04	1.023
67.26	7.981
67.48	8.247
67.7	3.474
67.92	12.141
68.14	5.037
68.36	7.907
68.58	0.467
68.8	1.505
69.02	1.166
69.24	8.805
69.46	1.439
69.68	5.972
69.9	3.856
70.12	1.57
70.34	0.495
70.56	10.698
70.78	0.856
71	0.698
71.22	4.631
71.44	11.05
71.66	4.215
71.88	4.323
72.1	1.807
72.32	1.228
72.54	0.484
72.76	3.932
72.98	13.944
73.2	3.072
73.42	13.432
73.64	1.682
73.86	2.809
74.08	6.918
74.3	3.062
74.52	10.221
74.74	4.998
74.96	7.846
75.18	7.445
75.4	3.669
75.62	10.592
75.84	0.237
76.06	8.075
76.28	11.922
76.5	1.955
76.72	0.116
76.94	1.649
77.16	2.877
77.38	6.986
77.6	11.388
77.82	14.248
78.04	9.285
78.26	8.666
78.48	10.057
78.7	4.038
78.92	11.073
79.14	5.136
79.36	7.331
79.58	5.072
79.8	6.732
80.02	11.991
80.24	3.952
80.46	9.785
80.68	15.701
80.9	0.322
81.12	6.268
81.34	1.637
81.56	4.042
81.78	10.078
82	5.257
82.22	3.319
82.44	0.052
82.66	11.02
82.88	6.359
83.1	8.504
83.32	3.814
83.54	2.772
83.76	2.33
83.98	0.748
84.2	3.938
84.42	11.982
84.64	2.784
84.86	4.834
85.08	5.979
85.3	3.614
85.52	4.541
85.74	17.319
85.96	0.634
86.18	0.95
86.4	7.483
86.62	2.595
86.84	2.81
87.06	1.83
87.28	2.867
87.5	2.791
87.72	9.124
87.94	9.141
88.16	10.27
88.38	1.657
88.6	6.679
88.82	7.775
89.04	12.88
89.26	5.136
89.48	10.409
89.7	2.164
89.92	5.083
