Measurement: Powder, Xray Data XY Processed
Mineral: Bayldonite
Rruff sample: R050670
Ideal chemistry: Cu^2+^_3_Pb^2+^O(As^5+^O_3_OH)_2_(OH)_2_
Locality: Tsumeb mine, Tsumeb, Otavi District, Oshikoto, Namibia
Source: University of Arizona Mineral Museum
Description: Green botryoidal coating asociated with olivenite R050670, malachite balls and azurite
Diffraction sample description: Powder
Measured chemistry: Pb_1.00_Cu_3.00_O(As_1.00_O_3_OH)_2_(OH)_2_
Cell parameters: a: 10.1466(6) b: 5.8921(3) c: 14.091(2) alpha: 90. beta: 106.057(6) gamma: 90. volume: 809.59(7) crystal system: monoclinic
x	intensity
5	0
5.22	3.363
5.44	9.368
5.66	13.855
5.88	20.665
6.1	11.617
6.32	11.103
6.54	6.194
6.76	10.186
6.98	8.613
7.2	8.221
7.42	2.752
7.64	4.352
7.86	4.096
8.08	2.733
8.3	2.335
8.52	7.991
8.74	4.381
8.96	4.891
9.18	11.198
9.4	0.603
9.62	3.618
9.84	0.731
10.06	8.785
10.28	4.624
10.5	4.57
10.72	5.595
10.94	7.314
11.16	3.362
11.38	6.52
11.6	3.465
11.82	19.423
12.04	2.188
12.26	2.259
12.48	2.441
12.7	8.396
12.92	8.592
13.14	9.535
13.36	5.542
13.58	5.524
13.8	13.244
14.02	4.056
14.24	5.075
14.46	6.074
14.68	7.062
14.9	4.753
15.12	4.958
15.34	4.709
15.56	2.579
15.78	0.507
16	2.796
16.22	4.74
16.44	20.674
16.66	10.434
16.88	7.2
17.1	4.897
17.32	5.396
17.54	9.574
17.76	5.455
17.98	46.257
18.2	19.8
18.42	11.095
18.64	2.063
18.86	0.681
19.08	7.788
19.3	24.584
19.52	5.886
19.74	80.888
19.96	3.556
20.18	2.505
20.4	5.684
20.62	5.02
20.84	12.235
21.06	6.351
21.28	13.621
21.5	0.508
21.72	6.929
21.94	0.713
22.16	10.835
22.38	4.237
22.6	9.488
22.82	0.572
23.04	12.383
23.26	4.391
23.48	7.397
23.7	1.111
23.92	7.98
24.14	8.571
24.36	7.891
24.58	6.593
24.8	13.115
25.02	0.102
25.24	6.651
25.46	3.287
25.68	1.603
25.9	4.458
26.12	4.424
26.34	21.829
26.56	13.144
26.78	127.065
27	0.611
27.22	9.08
27.44	10.156
27.66	130.743
27.88	18.936
28.1	7.512
28.32	35.108
28.54	71.55
28.76	20.501
28.98	8.494
29.2	4.433
29.42	6.309
29.64	6.249
29.86	14.529
30.08	13.598
30.3	9.44
30.52	110.042
30.74	19.399
30.96	1.683
31.18	8.662
31.4	14.325
31.62	10.679
31.84	5.804
32.06	5.857
32.28	2.639
32.5	10.474
32.72	4.059
32.94	88.512
33.16	45.268
33.38	14.315
33.6	17.889
33.82	62.165
34.04	27.021
34.26	0.198
34.48	9.568
34.7	3.423
34.92	0.415
35.14	16.395
35.36	110.237
35.58	21.719
35.8	17.597
36.02	7.317
36.24	98.217
36.46	23.374
36.68	2.966
36.9	32.678
37.12	16.745
37.34	16.994
37.56	7.937
37.78	6.371
38	7.862
38.22	0.893
38.44	12.685
38.66	8.724
38.88	4.586
39.1	10.396
39.32	11.987
39.54	23.443
39.76	20.67
39.98	68.713
40.2	18.84
40.42	8.909
40.64	12.225
40.86	14.38
41.08	9.785
41.3	5.907
41.52	12.958
41.74	8.773
41.96	1.839
42.18	5.763
42.4	9.718
42.62	24.839
42.84	17.966
43.06	6.034
43.28	3.322
43.5	6.483
43.72	0.88
43.94	19.029
44.16	19.172
44.38	5.312
44.6	2.05
44.82	0.371
45.04	0.901
45.26	10.066
45.48	6.871
45.7	5.773
45.92	6.999
46.14	3.41
46.36	6.971
46.58	1.297
46.8	0.775
47.02	3.219
47.24	5.646
47.46	21.571
47.68	9.064
47.9	22.506
48.12	22.959
48.34	6.475
48.56	20.622
48.78	5.57
49	25.494
49.22	9.551
49.44	4.006
49.66	1.355
49.88	10.59
50.1	10.581
50.32	47.925
50.54	13.295
50.76	11.703
50.98	2.511
51.2	10.401
51.42	0.457
51.64	10.377
51.86	3.196
52.08	38.222
52.3	14.045
52.52	9.646
52.74	31.639
52.96	14.244
53.18	6.407
53.4	32.551
53.62	14.066
53.84	13.093
54.06	21.852
54.28	42.816
54.5	13.644
54.72	12.852
54.94	7.083
55.16	0.052
55.38	13.579
55.6	17.47
55.82	12.213
56.04	12.073
56.26	3.041
56.48	12.308
56.7	21.529
56.92	21.325
57.14	29.352
57.36	16.514
57.58	8.174
57.8	4.836
58.02	1.879
58.24	2.151
58.46	6.927
58.68	59.06
58.9	35.035
59.12	7.141
59.34	4.089
59.56	10.158
59.78	0.425
60	14.333
60.22	12.713
60.44	4.04
60.66	6.473
60.88	11.296
61.1	6.191
61.32	7.086
61.54	11.655
61.76	16.977
61.98	10.504
62.2	14.336
62.42	22.679
62.64	8.125
62.86	9.097
63.08	13.882
63.3	27.851
63.52	36.595
63.74	9.85
63.96	12.444
64.18	2.16
64.4	4.44
64.62	3.043
64.84	17.481
65.06	3.454
65.28	4.729
65.5	3.434
65.72	1.431
65.94	4.962
66.16	11.776
66.38	17.417
66.6	8.571
66.82	13.559
67.04	3.051
67.26	6.8
67.48	4.675
67.7	5.335
67.92	9.7
68.14	10.761
68.36	13.145
68.58	13.183
68.8	10.348
69.02	8.402
69.24	10.194
69.46	8.311
69.68	1.512
69.9	7.55
70.12	6.083
70.34	19.193
70.56	5.483
70.78	5.71
71	16.669
71.22	8.031
71.44	15.617
71.66	2.011
71.88	8.587
72.1	18.712
72.32	5.763
72.54	6.333
72.76	12.906
72.98	1.175
73.2	7.388
73.42	4.406
73.64	14.191
73.86	13.783
74.08	16.368
74.3	0.686
74.52	1.497
74.74	14.377
74.96	7.367
75.18	11.641
75.4	20.758
75.62	6.566
75.84	18.74
76.06	3.167
76.28	0.52
76.5	15.352
76.72	14.21
76.94	10.271
77.16	8.163
77.38	10.617
77.6	12.381
77.82	11.44
78.04	1.242
78.26	5.087
78.48	9.803
78.7	8.816
78.92	8.19
79.14	4.499
79.36	1.959
79.58	2.728
79.8	0.03
80.02	12.315
80.24	9.507
80.46	1.352
80.68	12.985
80.9	6.673
81.12	16.086
81.34	0.395
81.56	13.168
81.78	5.029
82	16.307
82.22	1.031
82.44	3.601
82.66	14.424
82.88	5.704
83.1	8.763
83.32	8.008
83.54	11.83
83.76	7.109
83.98	9.253
84.2	4.062
84.42	8.108
84.64	12.5
84.86	6.552
85.08	11.482
85.3	9.433
85.52	16.483
85.74	5.677
85.96	12.492
86.18	16.957
86.4	18.326
86.62	4.475
86.84	11.728
87.06	4.541
87.28	5.989
87.5	14.203
87.72	9.4
87.94	21.553
88.16	9.597
88.38	9.69
88.6	13.492
88.82	6.685
89.04	5.534
89.26	5.189
89.48	17.128
89.7	5.32
89.92	6.134
