Measurement: Powder, Xray Data XY Processed
Mineral: Beaverite-(Cu)
Rruff sample: R060400
Ideal chemistry: Pb^2+^Cu^2+^Fe^3+^_2_(S^6+^O_4_)_2_(OH)_6_
Locality: Utah, USA
Source: American Museum of Natural History
Description: Brownish yellow earthy mass
Diffraction sample description: Powder
Cell parameters: a: 7.2348(8) b: 7.2348(8) c: 17.187(6) alpha: 90 beta: 90 gamma: 120 volume: 779.1(0) crystal system: hexagonal
x	intensity
5	0
5.22	11.2429
5.44	0.242355
5.66	10.1262
5.88	18.9891
6.1	19.1004
6.32	13.8613
6.54	22.0861
6.76	13.7399
6.98	6.92093
7.2	12.1626
7.42	4.59839
7.64	1.43636
7.86	2.98019
8.08	2.25942
8.3	18.4563
8.52	19.4026
8.74	2.94678
8.96	7.89449
9.18	12.5342
9.4	13.8276
9.62	7.05577
9.84	9.10853
10.06	3.55656
10.28	17.2324
10.5	16.152
10.72	14.2938
10.94	13.5792
11.16	4.31586
11.38	5.85644
11.6	21.9092
11.82	17.5519
12.04	15.2353
12.26	0.117081
12.48	15.583
12.7	5.7607
12.92	1.89245
13.14	12.7955
13.36	7.36372
13.58	15.0995
13.8	16.7892
14.02	6.47342
14.24	3.20603
14.46	4.45855
14.68	24.3635
14.9	48.7729
15.12	428.609
15.34	17.5331
15.56	23.3825
15.78	13.5251
16	14.1001
16.22	3.1633
16.44	11.2211
16.66	20.29
16.88	10.8657
17.1	1.91505
17.32	23.8528
17.54	35.2326
17.76	14.048
17.98	7.87318
18.2	15.9766
18.42	0.581709
18.64	15.7653
18.86	11.064
19.08	12.8342
19.3	9.97551
19.52	14.0336
19.74	17.5104
19.96	6.78689
20.18	9.76776
20.4	11.7271
20.62	2.76452
20.84	18.737
21.06	5.68137
21.28	11.8875
21.5	2.38821
21.72	14.6962
21.94	15.6912
22.16	12.5512
22.38	13.0144
22.6	2.71612
22.82	3.9521
23.04	2.7429
23.26	3.3891
23.48	0.9578
23.7	9.15284
23.92	4.1644
24.14	4.23698
24.36	2.89015
24.58	168.546
24.8	29.9132
25.02	14.1511
25.24	11.2709
25.46	2.77674
25.68	1.78333
25.9	12.1957
26.12	13.8224
26.34	21.9967
26.56	23.7484
26.78	6.10578
27	10.5412
27.22	23.7237
27.44	0.706717
27.66	5.51831
27.88	2.58213
28.1	6.38979
28.32	7.72126
28.54	1.38082
28.76	13.4428
28.98	61.826
29.2	330.609
29.42	77.7164
29.64	23.8963
29.86	22.8237
30.08	9.29096
30.3	32.6964
30.52	48.2786
30.74	9.11863
30.96	9.15512
31.18	53.0158
31.4	32.9441
31.62	18.8693
31.84	20.5084
32.06	7.9962
32.28	12.9614
32.5	5.55642
32.72	17.7823
32.94	25.7897
33.16	18.9851
33.38	6.57763
33.6	13.8909
33.82	13.7342
34.04	0.466667
34.26	5.21456
34.48	8.81479
34.7	2.77559
34.92	1.94438
35.14	10.7902
35.36	56.0043
35.58	49.1714
35.8	19.9263
36.02	24.6795
36.24	12.8792
36.46	11.3564
36.68	2.63404
36.9	20.5609
37.12	12.0954
37.34	5.38578
37.56	7.97638
37.78	2.66896
38	15.4415
38.22	27.0261
38.44	52.0992
38.66	16.3068
38.88	7.22964
39.1	23.7446
39.32	45.9596
39.54	102.48
39.76	24.9312
39.98	8.55203
40.2	16.2074
40.42	13.1606
40.64	7.2346
40.86	18.498
41.08	13.5828
41.3	15.1153
41.52	22.7352
41.74	19.1492
41.96	11.0061
42.18	5.91427
42.4	7.98036
42.62	2.37142
42.84	12.9745
43.06	11.7481
43.28	12.5241
43.5	5.9473
43.72	22.2968
43.94	28.1404
44.16	7.58077
44.38	25.857
44.6	8.62685
44.82	3.62088
45.04	10.5152
45.26	8.45052
45.48	9.0008
45.7	1.63504
45.92	23.2715
46.14	45.9438
46.36	83.1919
46.58	26.4543
46.8	18.2779
47.02	16.5673
47.24	3.76814
47.46	5.14346
47.68	2.62061
47.9	23.6434
48.12	20.0699
48.34	0.619801
48.56	1.56044
48.78	10.284
49	13.3088
49.22	12.953
49.44	18.3423
49.66	9.92051
49.88	6.38507
50.1	15.5136
50.32	42.722
50.54	36.0646
50.76	6.76806
50.98	11.3736
51.2	8.99818
51.42	15.4072
51.64	20.8848
51.86	9.92011
52.08	0.087006
52.3	18.3897
52.52	27.1105
52.74	2.1137
52.96	14.6187
53.18	23.3544
53.4	6.16877
53.62	1.11349
53.84	16.3884
54.06	8.19814
54.28	23.24
54.5	12.5128
54.72	4.80619
54.94	4.60462
55.16	6.35305
55.38	12.0185
55.6	1.66652
55.82	6.59525
56.04	12.6334
56.26	8.93041
56.48	4.44162
56.7	5.93338
56.92	1.53817
57.14	8.66701
57.36	9.3824
57.58	21.603
57.8	11.1573
58.02	7.52499
58.24	8.88352
58.46	14.4523
58.68	7.78695
58.9	5.91013
59.12	17.9485
59.34	10.313
59.56	11.1645
59.78	11.7847
60	25.9761
60.22	17.0245
60.44	12.3442
60.66	14.1785
60.88	4.14111
61.1	2.21525
61.32	22.3062
61.54	11.9457
61.76	1.764
61.98	3.64923
62.2	8.74125
62.42	2.18304
62.64	11.7838
62.86	13.4855
63.08	17.3909
63.3	11.0799
63.52	22.0448
63.74	7.46898
63.96	6.23716
64.18	2.90596
64.4	7.47977
64.62	0.229137
64.84	20.8305
65.06	17.4942
65.28	14.3622
65.5	9.53845
65.72	8.62695
65.94	17.0909
66.16	23.1215
66.38	12.368
66.6	1.36136
66.82	17.757
67.04	13.3996
67.26	1.77584
67.48	22.1068
67.7	15.3601
67.92	16.2846
68.14	0.543999
68.36	18.8422
68.58	19.4606
68.8	2.36754
69.02	15.1751
69.24	1.95994
69.46	9.65295
69.68	8.49358
69.9	8.39594
70.12	8.27257
70.34	3.54611
70.56	14.7942
70.78	22.2596
71	9.51599
71.22	11.1316
71.44	6.68223
71.66	6.81639
71.88	16.0122
72.1	15.2106
72.32	4.63537
72.54	10.2232
72.76	11.1895
72.98	5.04248
73.2	13.2648
73.42	6.14419
73.64	15.4364
73.86	0.259781
74.08	15.2415
74.3	26.199
74.52	9.40222
74.74	4.4448
74.96	5.6043
75.18	0.408928
75.4	14.7997
75.62	2.02651
75.84	14.0688
76.06	19.2172
76.28	29.9553
76.5	11.064
76.72	10.893
76.94	12.5684
77.16	20.4298
77.38	9.30923
77.6	18.6209
77.82	5.0617
78.04	14.5649
78.26	10.5566
78.48	22.8172
78.7	6.27865
78.92	14.1503
79.14	13.3441
79.36	17.9943
79.58	8.11956
79.8	13.032
80.02	12.5309
80.24	11.3415
80.46	16.0429
80.68	4.87654
80.9	4.70848
81.12	15.1112
81.34	18.8783
81.56	27.4521
81.78	0.961536
82	6.15654
82.22	16.9722
82.44	9.52039
82.66	0.180218
82.88	18.3189
83.1	11.3218
83.32	3.31243
83.54	10.3438
83.76	2.60225
83.98	8.79129
84.2	10.9667
84.42	9.0442
84.64	5.46373
84.86	9.84246
85.08	0.012669
85.3	13.9895
85.52	7.06503
85.74	1.32282
85.96	6.13162
86.18	10.612
86.4	12.5787
86.62	7.17268
86.84	15.1217
87.06	11.3171
87.28	13.2457
87.5	6.74191
87.72	9.85521
87.94	2.41419
88.16	16.8455
88.38	10.3765
88.6	13.7439
88.82	10.2638
89.04	3.91702
89.26	15.0195
89.48	23.6447
89.7	12.7588
89.92	25.2984
