Measurement: Powder, Xray Data XY Processed
Mineral: Bellingerite
Rruff sample: R050607
Ideal chemistry: Cu^2+^_3_(I^5+^O_3_)_6_2H_2_O
Locality: Chuquicamata, Chile
Source: University of Arizona Mineral Museum
Description: Bluish green prismatic crystals
Diffraction sample description: Single crystal, powder profile is calculated
Cell parameters: a: 7.2687(8) b: 7.9609(9) c: 7.8601(6) alpha: 105.049(7) beta: 93.093(7) gamma: 96.977(6) volume: 434.2(1) crystal system: triclinic
x	intensity
5	0
5.22	0
5.44	0
5.66	0
5.88	0
6.1	0
6.32	0
6.54	0
6.76	0
6.98	0
7.2	0
7.42	0
7.64	0
7.86	0
8.08	0
8.3	0
8.52	0
8.74	0
8.96	0
9.18	0
9.4	0
9.62	0
9.84	0
10.06	0
10.28	0
10.5	0
10.72	0
10.94	0
11.16	0
11.38	0
11.6	1.171
11.82	0.032
12.04	0
12.26	0.002
12.48	0
12.7	0
12.92	0
13.14	0
13.36	0
13.58	0
13.8	0
14.02	0.026
14.24	0.058
14.46	0
14.68	0
14.9	0
15.12	0
15.34	0
15.56	0
15.78	7.662
16	0
16.22	2.862
16.44	0
16.66	0
16.88	0
17.1	0
17.32	0
17.54	0
17.76	1.32
17.98	0
18.2	12.1
18.42	0.47
18.64	19.392
18.86	0
19.08	0.002
19.3	0.046
19.52	0
19.74	0
19.96	0
20.18	0
20.4	0
20.62	0
20.84	3.014
21.06	0
21.28	0
21.5	0
21.72	0
21.94	0
22.16	0
22.38	0
22.6	0
22.82	0
23.04	0.001
23.26	38.905
23.48	0.566
23.7	0.001
23.92	41.113
24.14	0
24.36	0
24.58	0
24.8	1.201
25.02	9.485
25.24	13.399
25.46	0
25.68	6.961
25.9	18.077
26.12	0.041
26.34	7.3
26.56	61.599
26.78	0.127
27	0
27.22	0
27.44	33.898
27.66	3.684
27.88	0
28.1	61.094
28.32	0.131
28.54	12.6
28.76	0
28.98	22.189
29.2	2.465
29.42	0
29.64	0
29.86	2.182
30.08	2.46
30.3	1.275
30.52	0.428
30.74	2.076
30.96	0
31.18	0
31.4	0
31.62	0.262
31.84	1.202
32.06	0
32.28	0
32.5	0.09
32.72	0
32.94	0.195
33.16	5.078
33.38	0.997
33.6	0
33.82	0
34.04	4.633
34.26	1.304
34.48	0.028
34.7	0.9
34.92	0.35
35.14	3.613
35.36	6.21
35.58	7.861
35.8	0.605
36.02	4.311
36.24	3.117
36.46	0
36.68	0.576
36.9	0.265
37.12	14.2
37.34	0.021
37.56	4.608
37.78	9.498
38	0.02
38.22	0.831
38.44	6.456
38.66	0.008
38.88	1.291
39.1	0.866
39.32	4.629
39.54	0.001
39.76	2.869
39.98	0.028
40.2	5.405
40.42	7.009
40.64	6.547
40.86	0.586
41.08	12.777
41.3	0.478
41.52	0.044
41.74	0.757
41.96	4.863
42.18	0.025
42.4	0.079
42.62	5.901
42.84	0.036
43.06	0.918
43.28	1.985
43.5	0.039
43.72	2.251
43.94	0.003
44.16	1.079
44.38	3.363
44.6	3.141
44.82	5.433
45.04	4.434
45.26	1.948
45.48	2.973
45.7	12.486
45.92	1.638
46.14	1.987
46.36	0.286
46.58	2.464
46.8	2.823
47.02	0
47.24	0.002
47.46	0.857
47.68	0.879
47.9	4.95
48.12	15.858
48.34	2.012
48.56	0.782
48.78	4.95
49	0.227
49.22	1.552
49.44	0.921
49.66	1.011
49.88	2.557
50.1	1.565
50.32	0.748
50.54	0.197
50.76	2.851
50.98	3.071
51.2	1.095
51.42	10.915
51.64	5.919
51.86	14.343
52.08	4.075
52.3	0.763
52.52	0.227
52.74	2.747
52.96	1.94
53.18	0.135
53.4	1.518
53.62	0.194
53.84	0.056
54.06	0.736
54.28	0.397
54.5	1.132
54.72	0.336
54.94	0.911
55.16	0.114
55.38	1.36
55.6	0
55.82	5.241
56.04	1.221
56.26	3.692
56.48	2.685
56.7	1.635
56.92	0.052
57.14	1.011
57.36	1.913
57.58	3.117
57.8	0.791
58.02	1.269
58.24	4.153
58.46	1.925
58.68	1.13
58.9	8.982
59.12	2.763
59.34	0.231
59.56	0.295
59.78	0.852
60	6.321
60.22	1.013
60.44	3.109
60.66	2.902
60.88	1.63
61.1	1.209
61.32	3.103
61.54	1.451
61.76	0.277
61.98	0.93
62.2	1.168
62.42	1.16
62.64	3.087
62.86	1.868
63.08	0.073
63.3	0.84
63.52	1.35
63.74	1.493
63.96	1.529
64.18	1.749
64.4	1.038
64.62	1.296
64.84	1.98
65.06	3.28
65.28	1.524
65.5	0.709
65.72	2.59
65.94	1.064
66.16	0.773
66.38	1.692
66.6	2.013
66.82	0.335
67.04	0.224
67.26	5.709
67.48	3.292
67.7	0.21
67.92	0.68
68.14	1.057
68.36	0.526
68.58	0.296
68.8	1.308
69.02	1.037
69.24	0.406
69.46	1.819
69.68	1.449
69.9	0.501
70.12	0.402
70.34	1.303
70.56	0.801
70.78	2.003
71	0.545
71.22	3.071
71.44	1.74
71.66	0.878
71.88	1.034
72.1	0.492
72.32	0.968
72.54	0.65
72.76	0.043
72.98	4.165
73.2	2.24
73.42	0.028
73.64	1.485
73.86	0.799
74.08	1.15
74.3	1.946
74.52	1.728
74.74	0.806
74.96	1.131
75.18	0.674
75.4	0.589
75.62	1.596
75.84	0.991
76.06	0.306
76.28	4.003
76.5	2.15
76.72	1.56
76.94	0.856
77.16	0.382
77.38	2.027
77.6	0.902
77.82	0.289
78.04	0.545
78.26	0.339
78.48	0.122
78.7	2.993
78.92	2.018
79.14	1.179
79.36	2.304
79.58	1.086
79.8	0.826
80.02	1.025
80.24	0.998
80.46	1.141
80.68	1.262
80.9	0.315
81.12	0.485
81.34	2.064
81.56	0.872
81.78	0.019
82	0.123
82.22	1.004
82.44	1.005
82.66	0.693
82.88	1.717
83.1	0.584
83.32	0.091
83.54	0.962
83.76	0.499
83.98	0.299
84.2	0.961
84.42	0.233
84.64	0.194
84.86	0.268
85.08	0.214
85.3	0.152
85.52	0.396
85.74	1.568
85.96	1.5
86.18	0.355
86.4	0.267
86.62	0.504
86.84	0.205
87.06	0.819
87.28	0.806
87.5	0.296
87.72	2.142
87.94	0.989
88.16	1.048
88.38	1.662
88.6	0.416
88.82	0.114
89.04	0.551
89.26	0.374
89.48	0.029
89.7	0.254
89.92	0.796
