Measurement: Powder, Xray Data XY Processed
Mineral: Benitoite
Rruff sample: R050332
Ideal chemistry: BaTi^4+^Si_3_O_9_
Locality: Benitoite Gem mine, Santa Rita Peak, San Benito County, California, USA
Source: California Institute of Technology
Description: Pale blue fragment
Diffraction sample description: Single crystal, powder profile is calculated
Measured chemistry: Ba_1.00_Ti_1.00_Si_3.00_O_9_
Cell parameters: a: 6.647(1) b: 6.647(1) c: 9.750(2) alpha: 90 beta: 90 gamma: 120 volume: 373.12(6) crystal system: hexagonal
x	intensity
5	0
5.22	0
5.44	0
5.66	0
5.88	0
6.1	0
6.32	0
6.54	0
6.76	0
6.98	0
7.2	0
7.42	0
7.64	0
7.86	0
8.08	0
8.3	0
8.52	0
8.74	0
8.96	0
9.18	0
9.4	0
9.62	0
9.84	0
10.06	0
10.28	0
10.5	0
10.72	0
10.94	0
11.16	0
11.38	0
11.6	0
11.82	0
12.04	0
12.26	0
12.48	0
12.7	0
12.92	0
13.14	0
13.36	0
13.58	0
13.8	0
14.02	0
14.24	0
14.46	0
14.68	0
14.9	0
15.12	0
15.34	4.015
15.56	0
15.78	0
16	0
16.22	0
16.44	0
16.66	0
16.88	0
17.1	0
17.32	0
17.54	0
17.76	0
17.98	0
18.2	2.632
18.42	0
18.64	0
18.86	0
19.08	0
19.3	0
19.52	0
19.74	0
19.96	0
20.18	0
20.4	0
20.62	0
20.84	0
21.06	0
21.28	0
21.5	0
21.72	0
21.94	0
22.16	0
22.38	0
22.6	0
22.82	0
23.04	0
23.26	0
23.48	0
23.7	0
23.92	87.794
24.14	0
24.36	0
24.58	0
24.8	0
25.02	0
25.24	0
25.46	0
25.68	0
25.9	0
26.12	0
26.34	0
26.56	0
26.78	4.293
27	0.014
27.22	0
27.44	0
27.66	0
27.88	0
28.1	0
28.32	3.033
28.54	0.02
28.76	0
28.98	0
29.2	0
29.42	0
29.64	0
29.86	0
30.08	0
30.3	0
30.52	0
30.74	0
30.96	0.024
31.18	8.551
31.4	0
31.62	0
31.84	0
32.06	0
32.28	0
32.5	0.912
32.72	11.695
32.94	0
33.16	0
33.38	0
33.6	0
33.82	0
34.04	0
34.26	0
34.48	0
34.7	0
34.92	0
35.14	0
35.36	0
35.58	0
35.8	0
36.02	0
36.24	3.747
36.46	0
36.68	0.002
36.9	4.318
37.12	0
37.34	0
37.56	0
37.78	0
38	0
38.22	0
38.44	0
38.66	0.12
38.88	0.051
39.1	0
39.32	0
39.54	0
39.76	0
39.98	0.001
40.2	3.214
40.42	0
40.64	0
40.86	0
41.08	0
41.3	0
41.52	13.841
41.74	0.005
41.96	0
42.18	0
42.4	0
42.62	2.454
42.84	0
43.06	0
43.28	0
43.5	0
43.72	0
43.94	0
44.16	0
44.38	0
44.6	0
44.82	0
45.04	0
45.26	0
45.48	0
45.7	3.996
45.92	0
46.14	12.404
46.36	0.039
46.58	0
46.8	0
47.02	0
47.24	0.001
47.46	2.224
47.68	0
47.9	0
48.12	0
48.34	0
48.56	0
48.78	0.002
49	2.83
49.22	0
49.44	0
49.66	0
49.88	0
50.1	0
50.32	0.001
50.54	0.376
50.76	0
50.98	0
51.2	4.125
51.42	0.003
51.64	0
51.86	0
52.08	0
52.3	0
52.52	0
52.74	0
52.96	0
53.18	0
53.4	0
53.62	0
53.84	0
54.06	0
54.28	0
54.5	0.017
54.72	0.001
54.94	0
55.16	0.004
55.38	0.531
55.6	0
55.82	0
56.04	0
56.26	0.004
56.48	0
56.7	5.948
56.92	0.1
57.14	0
57.36	0
57.58	0
57.8	0.459
58.02	0.004
58.24	0
58.46	0.002
58.68	4.583
58.9	1.788
59.12	2.261
59.34	0
59.56	0
59.78	0
60	0
60.22	0
60.44	0
60.66	0
60.88	0
61.1	5.898
61.32	0.336
61.54	0.577
61.76	0.005
61.98	0
62.2	0
62.42	0
62.64	0
62.86	0.017
63.08	0
63.3	0
63.52	0.006
63.74	0.699
63.96	0.013
64.18	0.034
64.4	0
64.62	0
64.84	0.183
65.06	2.094
65.28	0.97
65.5	0
65.72	0
65.94	0.334
66.16	0.079
66.38	0
66.6	0
66.82	0
67.04	0
67.26	0
67.48	0
67.7	0
67.92	2.38
68.14	0.71
68.36	0.543
68.58	0.042
68.8	0
69.02	0
69.24	0
69.46	0
69.68	0
69.9	0
70.12	0
70.34	0.002
70.56	0.107
70.78	0.015
71	0
71.22	0
71.44	1.528
71.66	0.699
71.88	0
72.1	0.008
72.32	0.008
72.54	1.433
72.76	0.62
72.98	0
73.2	0
73.42	0
73.64	0.567
73.86	0.27
74.08	0
74.3	0.008
74.52	0.095
74.74	0.035
74.96	0.002
75.18	0.001
75.4	0
75.62	0.091
75.84	0.085
76.06	0.025
76.28	0
76.5	0.599
76.72	0.694
76.94	1.162
77.16	1.677
77.38	0.512
77.6	0
77.82	0
78.04	0.393
78.26	0.692
78.48	0.177
78.7	1.687
78.92	1.198
79.14	0
79.36	0
79.58	0
79.8	0
80.02	0
80.24	0
80.46	0.108
80.68	0.096
80.9	0
81.12	0
81.34	0
81.56	0
81.78	0
82	0.269
82.22	0.257
82.44	0.032
82.66	0.001
82.88	0
83.1	1.172
83.32	0.735
83.54	0.008
83.76	0
83.98	0.019
84.2	0.007
84.42	0.035
84.64	0.059
84.86	0.152
85.08	1.418
85.3	0.144
85.52	0.003
85.74	0
85.96	0
86.18	0
86.4	0
86.62	1.443
86.84	0.425
87.06	0.005
87.28	2.249
87.5	0.341
87.72	0.001
87.94	0
88.16	0.042
88.38	0.002
88.6	0
88.82	0
89.04	0
89.26	0
89.48	0.005
89.7	0.038
89.92	0.197
