Measurement: Powder, Xray Data XY Processed
Mineral: Beraunite
Rruff sample: R060464
Ideal chemistry: Fe^2+^Fe^3+^_5_(PO_4_)_4_(OH)_5_6H_2_O
Locality: York mine, Polk County, Arkansas, USA
Source: Michael Scott
Description: Brownish-red fractured-looking aggregate associated with balls of kidwellite
Diffraction sample description: Single crystal, powder profile is calculated
Measured chemistry: (Fe^2+^_0.85_Mn^2+^_0.15_)_Σ=1_Fe^3+^_5.00_(P_1.00_O_4_)_4_(OH)_5_·5.50H_2_O; H_2_O by difference; (OH) by charge balance
Cell parameters: a: 20.709(3) b: 5.1457(6) c: 19.247(3) alpha: 90 beta: 93.452(7) gamma: 90 volume: 2047(1) crystal system: monoclinic
x	intensity
5	0
5.22	0
5.44	0
5.66	0
5.88	0
6.1	0
6.32	0
6.54	0
6.76	0
6.98	0
7.2	0
7.42	0
7.64	0
7.86	0
8.08	0
8.3	0
8.52	48.084
8.74	0
8.96	0
9.18	24.935
9.4	0
9.62	0
9.84	0
10.06	0
10.28	0
10.5	0
10.72	0
10.94	0
11.16	0
11.38	0
11.6	0
11.82	0
12.04	0
12.26	3.066
12.48	0
12.7	0
12.92	0.565
13.14	0
13.36	0
13.58	0
13.8	0
14.02	0
14.24	0
14.46	0
14.68	0
14.9	0
15.12	0
15.34	0
15.56	0
15.78	0
16	0
16.22	0
16.44	0
16.66	0
16.88	0
17.1	0.493
17.32	0
17.54	0
17.76	0.095
17.98	0
18.2	0.005
18.42	26.694
18.64	0
18.86	0
19.08	0.052
19.3	0
19.52	0
19.74	0
19.96	2.996
20.18	8.9
20.4	0
20.62	0
20.84	0.003
21.06	0
21.28	0
21.5	0.813
21.72	0
21.94	1.524
22.16	0.165
22.38	0.236
22.6	0
22.82	0.006
23.04	0
23.26	0.013
23.48	0
23.7	0.443
23.92	0.031
24.14	0
24.36	0
24.58	0.313
24.8	0
25.02	0
25.24	2.667
25.46	0.805
25.68	0.031
25.9	7.42
26.12	8.215
26.34	0
26.56	0
26.78	0
27	1.466
27.22	0
27.44	0
27.66	2.877
27.88	5.966
28.1	1.958
28.32	4.84
28.54	0.001
28.76	2.661
28.98	8.796
29.2	1.376
29.42	0.005
29.64	0.261
29.86	0
30.08	0
30.3	0
30.52	0.112
30.74	0
30.96	0.574
31.18	0.742
31.4	0.002
31.62	2.537
31.84	0.001
32.06	0.261
32.28	0
32.5	0.049
32.72	5.267
32.94	2.315
33.16	0.03
33.38	0.035
33.6	0.003
33.82	0.287
34.04	0
34.26	0.532
34.48	0
34.7	3.137
34.92	2.007
35.14	0.487
35.36	0.406
35.58	1.005
35.8	0.175
36.02	0.218
36.24	0.781
36.46	0.062
36.68	0.02
36.9	0.02
37.12	1.689
37.34	1.788
37.56	0.091
37.78	0.087
38	0.013
38.22	0
38.44	0.282
38.66	1.106
38.88	0.462
39.1	2.65
39.32	0.302
39.54	0.203
39.76	0.003
39.98	0.892
40.2	0.164
40.42	1.934
40.64	0.393
40.86	0.192
41.08	0.055
41.3	0.202
41.52	0.064
41.74	0
41.96	0.216
42.18	0.09
42.4	0.021
42.62	0
42.84	4.763
43.06	1.873
43.28	0.073
43.5	0.019
43.72	1.291
43.94	0.191
44.16	0.46
44.38	0.355
44.6	0.2
44.82	0.071
45.04	0.001
45.26	3.229
45.48	0.324
45.7	0.563
45.92	0.119
46.14	0.462
46.36	0.129
46.58	0.11
46.8	0.013
47.02	0
47.24	1.563
47.46	2.447
47.68	0.103
47.9	0.001
48.12	0.038
48.34	0.448
48.56	0.059
48.78	0.555
49	0.247
49.22	0
49.44	0.046
49.66	0.101
49.88	0.072
50.1	0.588
50.32	0.062
50.54	0.047
50.76	0.411
50.98	0.031
51.2	0.42
51.42	0.029
51.64	0.057
51.86	0.57
52.08	0.033
52.3	0.605
52.52	0.3
52.74	0.04
52.96	0.26
53.18	0.642
53.4	0.665
53.62	1.43
53.84	1.3
54.06	0.005
54.28	0.892
54.5	1.026
54.72	0.513
54.94	0.014
55.16	0.063
55.38	0.179
55.6	0.49
55.82	0.074
56.04	0.423
56.26	0.057
56.48	0.502
56.7	0.203
56.92	0.612
57.14	3.896
57.36	0.339
57.58	0.667
57.8	0.153
58.02	0.25
58.24	0.147
58.46	0.705
58.68	0.292
58.9	1.094
59.12	0.936
59.34	0.106
59.56	0.009
59.78	0.279
60	0.164
60.22	0.74
60.44	0.769
60.66	0.151
60.88	0.33
61.1	0.425
61.32	0.21
61.54	0.282
61.76	0.16
61.98	0.639
62.2	0.333
62.42	0.364
62.64	0.471
62.86	0.53
63.08	0.68
63.3	0.494
63.52	0.318
63.74	0.22
63.96	0.849
64.18	0.28
64.4	0.089
64.62	0.927
64.84	0.323
65.06	1.294
65.28	0.439
65.5	0.459
65.72	0.187
65.94	0.094
66.16	0.188
66.38	0.731
66.6	0.218
66.82	0.347
67.04	0.082
67.26	0.283
67.48	0.19
67.7	0.09
67.92	0.082
68.14	0.329
68.36	0.381
68.58	0.276
68.8	0.321
69.02	0.174
69.24	0.04
69.46	0.022
69.68	0.021
69.9	0.005
70.12	0.005
70.34	0.057
70.56	0.133
70.78	0.189
71	0.157
71.22	1.031
71.44	0.839
71.66	0.386
71.88	0.051
72.1	0.273
72.32	0.166
72.54	0.324
72.76	0.159
72.98	0.163
73.2	0.094
73.42	0.389
73.64	0.344
73.86	0.122
74.08	0.165
74.3	0.314
74.52	0.205
74.74	0.118
74.96	0.128
75.18	0.083
75.4	0.034
75.62	0.05
75.84	0.066
76.06	0.101
76.28	0.152
76.5	0.119
76.72	0.282
76.94	0.17
77.16	0.226
77.38	0.144
77.6	0.139
77.82	0.196
78.04	0.084
78.26	0.047
78.48	0.116
78.7	0.079
78.92	0.192
79.14	0.111
79.36	0.138
79.58	0.355
79.8	0.212
80.02	0.045
80.24	0.109
80.46	0.14
80.68	0.097
80.9	0.039
81.12	0.192
81.34	0.078
81.56	0.121
81.78	0.181
82	0.136
82.22	0.253
82.44	0.341
82.66	0.18
82.88	0.202
83.1	0.14
83.32	0.088
83.54	0.086
83.76	0.303
83.98	0.329
84.2	0.119
84.42	0.15
84.64	0.144
84.86	0.12
85.08	0.207
85.3	0.154
85.52	0.111
85.74	0.095
85.96	0.157
86.18	0.032
86.4	0.025
86.62	0.081
86.84	0.235
87.06	0.113
87.28	0.051
87.5	0.113
87.72	0.082
87.94	0.336
88.16	0.422
88.38	0.059
88.6	0.086
88.82	0.022
89.04	0.063
89.26	0.063
89.48	0.035
89.7	0.094
89.92	0.077
