Measurement: Powder, Xray Data XY Processed
Mineral: Beraunite
Rruff sample: R060696
Ideal chemistry: Fe^2+^Fe^3+^_5_(PO_4_)_4_(OH)_5_6H_2_O
Locality: Three Oak Gap, Shady, Polk County, Arkansas, USA
Source: Bob Jenkins
Description: Reddish brown bladed crystals in radial aggregates
Diffraction sample description: Single crystal, powder profile is calculated
Measured chemistry: (Fe^2+^_0.98_Mn_0.02_)_Σ=1_Fe^3+^_5.00_(P_1.00_O_4_)_4_(OH)_5_·6H_2_O
Cell parameters: a: 20.676(6) b: 5.133(3) c: 19.199(8) alpha: 90 beta: 93.55(2) gamma: 90 volume: 2033.6(7) crystal system: monoclinic
x	intensity
5	0
5.22	0
5.44	0
5.66	0
5.88	0
6.1	0
6.32	0
6.54	0
6.76	0
6.98	0
7.2	0
7.42	0
7.64	0
7.86	0
8.08	0
8.3	0
8.52	89.136
8.74	0
8.96	0
9.18	24.399
9.4	0
9.62	0
9.84	0
10.06	0
10.28	0
10.5	0
10.72	0
10.94	0
11.16	0
11.38	0
11.6	0
11.82	0
12.04	0.001
12.26	0.438
12.48	0
12.7	0
12.92	0.629
13.14	0
13.36	0
13.58	0
13.8	0
14.02	0
14.24	0
14.46	0
14.68	0
14.9	0
15.12	0
15.34	0
15.56	0
15.78	0
16	0
16.22	0
16.44	0
16.66	0
16.88	0
17.1	1.842
17.32	0
17.54	0
17.76	0.067
17.98	0
18.2	0.048
18.42	20.227
18.64	0
18.86	0.008
19.08	0.001
19.3	0
19.52	0
19.74	0
19.96	1.308
20.18	5.975
20.4	0
20.62	0
20.84	0.003
21.06	0
21.28	0
21.5	1.873
21.72	0.007
21.94	0.154
22.16	0.378
22.38	0.309
22.6	0
22.82	0.002
23.04	0.015
23.26	0
23.48	0
23.7	2.874
23.92	0.001
24.14	0
24.36	0.001
24.58	0.045
24.8	0
25.02	0
25.24	1.945
25.46	3.479
25.68	0.04
25.9	3.304
26.12	6.488
26.34	0
26.56	0
26.78	0.038
27	0.102
27.22	0
27.44	0
27.66	1.66
27.88	5.575
28.1	0.248
28.32	2.194
28.54	0.012
28.76	1.615
28.98	16.353
29.2	0.429
29.42	0.016
29.64	0.161
29.86	0.001
30.08	0
30.3	0.025
30.52	0.004
30.74	0
30.96	0.648
31.18	1.494
31.4	0
31.62	2.288
31.84	0.057
32.06	0.027
32.28	0.001
32.5	0.033
32.72	3.08
32.94	4.339
33.16	0.003
33.38	0.056
33.6	0.001
33.82	0.3
34.04	0
34.26	0.54
34.48	0.001
34.7	1.749
34.92	2.973
35.14	0.049
35.36	0.891
35.58	0.19
35.8	0.104
36.02	0.551
36.24	0.545
36.46	0.189
36.68	0.136
36.9	0.031
37.12	0.885
37.34	1.089
37.56	0.295
37.78	0.003
38	0.014
38.22	0
38.44	1.378
38.66	0.733
38.88	1.753
39.1	1.718
39.32	0.078
39.54	0.169
39.76	0.004
39.98	0.387
40.2	0.153
40.42	1.849
40.64	0.219
40.86	0.121
41.08	0.006
41.3	0.11
41.52	0.079
41.74	0
41.96	0.612
42.18	0.129
42.4	0.002
42.62	0
42.84	4.418
43.06	0.844
43.28	0
43.5	1.44
43.72	0.394
43.94	0.85
44.16	0.066
44.38	0.384
44.6	0.22
44.82	0
45.04	0.064
45.26	2.563
45.48	0.057
45.7	0.199
45.92	0.629
46.14	0.176
46.36	0.2
46.58	0.075
46.8	0.013
47.02	0
47.24	5.256
47.46	0.183
47.68	0.128
47.9	0.064
48.12	0.149
48.34	0.591
48.56	0.073
48.78	0.535
49	0.212
49.22	0.064
49.44	0.058
49.66	0.126
49.88	1.388
50.1	0.19
50.32	0.153
50.54	0.248
50.76	0.9
50.98	0.034
51.2	0.381
51.42	0.054
51.64	0.061
51.86	0.358
52.08	0.112
52.3	0.499
52.52	0.8
52.74	0.037
52.96	0.254
53.18	1.113
53.4	0.38
53.62	2.081
53.84	0.505
54.06	0.056
54.28	0.947
54.5	1.774
54.72	0.421
54.94	0.001
55.16	0.122
55.38	1
55.6	0.531
55.82	0.066
56.04	0.315
56.26	0.077
56.48	0.17
56.7	0.103
56.92	1.565
57.14	3.046
57.36	0.138
57.58	0.675
57.8	0.556
58.02	0.278
58.24	0.216
58.46	0.208
58.68	0.338
58.9	1.717
59.12	0.362
59.34	0.132
59.56	0.01
59.78	0.286
60	0.23
60.22	1.476
60.44	1.065
60.66	0.211
60.88	0.327
61.1	0.083
61.32	0.059
61.54	0.226
61.76	0.287
61.98	1.093
62.2	0.299
62.42	0.43
62.64	0.318
62.86	0.241
63.08	0.098
63.3	0.089
63.52	0.052
63.74	0.466
63.96	0.689
64.18	0.628
64.4	1.056
64.62	0.519
64.84	0.434
65.06	0.562
65.28	0.686
65.5	0.69
65.72	0.172
65.94	0.213
66.16	0.344
66.38	0.639
66.6	0.276
66.82	0.102
67.04	0.147
67.26	0.152
67.48	0.079
67.7	0.024
67.92	0.425
68.14	0.169
68.36	0.303
68.58	0.301
68.8	0.193
69.02	0.109
69.24	0.084
69.46	0.025
69.68	0.031
69.9	0.105
70.12	0.043
70.34	0.023
70.56	0.275
70.78	0.122
71	0.482
71.22	0.462
71.44	0.233
71.66	0.161
71.88	0.084
72.1	0.213
72.32	0.346
72.54	0.134
72.76	0.045
72.98	0.133
73.2	0.048
73.42	1.026
73.64	0.847
73.86	0.247
74.08	0.248
74.3	0.477
74.52	0.354
74.74	0.19
74.96	0.354
75.18	0.237
75.4	0.145
75.62	0.087
75.84	0.064
76.06	0.222
76.28	0.15
76.5	0.192
76.72	0.312
76.94	0.467
77.16	0.297
77.38	0.081
77.6	0.14
77.82	0.262
78.04	0.112
78.26	0.131
78.48	0.058
78.7	0.235
78.92	0.155
79.14	0.094
79.36	0.325
79.58	0.221
79.8	0.084
80.02	0.036
80.24	0.443
80.46	0.196
80.68	0.086
80.9	0.099
81.12	0.147
81.34	0.091
81.56	0.328
81.78	0.185
82	0.075
82.22	0.215
82.44	0.163
82.66	0.179
82.88	0.108
83.1	0.039
83.32	0.171
83.54	0.14
83.76	0.445
83.98	0.217
84.2	0.277
84.42	0.2
84.64	0.064
84.86	0.229
85.08	0.314
85.3	0.089
85.52	0.09
85.74	0.137
85.96	0.051
86.18	0.016
86.4	0.185
86.62	0.144
86.84	0.257
87.06	0.065
87.28	0.144
87.5	0.079
87.72	0.405
87.94	0.062
88.16	0.145
88.38	0.059
88.6	0.156
88.82	0.1
89.04	0.025
89.26	0.028
89.48	0.086
89.7	0.087
89.92	0.07
