Measurement: Powder, Xray Data XY Processed
Mineral: Berthierite
Rruff sample: R070177
Ideal chemistry: Fe^2+^Sb^3+^_2_S^2-^_4_
Locality: Baia Sprie mine (Felsöbánya mine), Baia Sprie (Felsöbánya), Maramures County, Romania
Source: Michael Scott
Description: A mass of parallel silver gray metallic prismatic striated crystals
Diffraction sample description: Powder
Measured chemistry: darker phase: (Fe_0.97_Mn_0.03_)_Σ=1_(Sb_1.99_As_0.01_)_Σ=2_S_4.00_ ; lighter phase (bottom): Sb_2.00_S_3.00_ (stibnite)
Cell parameters: a: 11.4130(6) b: 14.1648(5) c: 3.7632(2) alpha: 90 beta: 90 gamma: 90 volume: 608.37(3) crystal system: orthorhombic
x	intensity
5	0
5.22	13.3594
5.44	1.15874
5.66	9.49733
5.88	9.72098
6.1	2.04851
6.32	6.23219
6.54	11.8632
6.76	6.26924
6.98	2.67962
7.2	16.1927
7.42	3.69939
7.64	6.77374
7.86	9.24825
8.08	6.50309
8.3	3.34135
8.52	11.7699
8.74	3.99225
8.96	11.8114
9.18	6.75987
9.4	14.503
9.62	8.4467
9.84	14.0854
10.06	3.8739
10.28	4.67413
10.5	5.64832
10.72	6.68062
10.94	8.60144
11.16	14.6548
11.38	1.65856
11.6	1.69889
11.82	7.83511
12.04	4.70544
12.26	0.947581
12.48	66.0737
12.7	8.14734
12.92	5.41804
13.14	15.6673
13.36	3.62065
13.58	3.70927
13.8	5.97867
14.02	10.048
14.24	5.15573
14.46	7.95572
14.68	5.64294
14.9	2.57062
15.12	9.10507
15.34	11.3967
15.56	14.9546
15.78	15.7295
16	11.744
16.22	7.41213
16.44	0.928173
16.66	5.74463
16.88	1.60975
17.1	2.82107
17.32	2.72447
17.54	48.6471
17.76	3.16787
17.98	6.47314
18.2	5.64191
18.42	1.85648
18.64	0.819665
18.86	10.0962
19.08	11.2332
19.3	7.24056
19.52	2.99968
19.74	5.96366
19.96	12.9187
20.18	3.77762
20.4	80.5095
20.62	11.3109
20.84	4.05867
21.06	5.01382
21.28	4.74076
21.5	7.66019
21.72	5.02949
21.94	3.29205
22.16	7.36088
22.38	13.9567
22.6	5.09262
22.82	2.97358
23.04	3.67579
23.26	8.05083
23.48	5.47434
23.7	3.77509
23.92	6.0405
24.14	29.9154
24.36	31.1459
24.58	29.342
24.8	25.0887
25.02	41.882
25.24	21.4406
25.46	11.5592
25.68	31.0796
25.9	10.7967
26.12	12.5429
26.34	102.227
26.56	5.09506
26.78	14.0479
27	7.07231
27.22	1.10748
27.44	0.702276
27.66	11.0459
27.88	20.5062
28.1	34.6053
28.32	0.249498
28.54	21.0026
28.76	10.3923
28.98	6.11522
29.2	43.5171
29.42	10.1989
29.64	51.6237
29.86	10.0625
30.08	3.34141
30.3	5.8211
30.52	5.39549
30.74	0.577555
30.96	17.21
31.18	74.3614
31.4	7.03395
31.62	3.529
31.84	0.678394
32.06	12.3454
32.28	14.9134
32.5	31.4592
32.72	1.06135
32.94	6.61123
33.16	1.42924
33.38	8.73967
33.6	15.4916
33.82	5.07827
34.04	36.298
34.26	146.936
34.48	27.9827
34.7	8.36969
34.92	5.15865
35.14	8.57361
35.36	75.2461
35.58	39.0481
35.8	21.664
36.02	11.1763
36.24	2.34052
36.46	7.6361
36.68	13.6137
36.9	16.2214
37.12	16.3372
37.34	9.36574
37.56	5.1108
37.78	2.39091
38	2.12847
38.22	10.774
38.44	9.84441
38.66	13.8429
38.88	1.13907
39.1	2.91111
39.32	5.07043
39.54	14.5943
39.76	16.4111
39.98	3.44928
40.2	20.0229
40.42	19.9466
40.64	35.9626
40.86	9.70542
41.08	6.40416
41.3	2.88931
41.52	31.5035
41.74	23.8792
41.96	2.26002
42.18	0.368322
42.4	0.334105
42.62	5.80839
42.84	4.94862
43.06	26.0505
43.28	3.6643
43.5	5.76963
43.72	12.8521
43.94	7.75925
44.16	31.6593
44.38	11.5355
44.6	4.3821
44.82	10.6317
45.04	20.8469
45.26	27.0705
45.48	14.8045
45.7	8.36531
45.92	5.45266
46.14	0.398144
46.36	4.87603
46.58	9.35051
46.8	37.9794
47.02	16.6323
47.24	21.5336
47.46	25.5668
47.68	6.837
47.9	1.26196
48.12	11.3974
48.34	65.9332
48.56	10.749
48.78	6.40163
49	25.3725
49.22	5.54828
49.44	10.6389
49.66	0.308538
49.88	0.406195
50.1	0.656416
50.32	10.0176
50.54	22.1602
50.76	23.8388
50.98	0.66967
51.2	43.527
51.42	24.9333
51.64	27.3457
51.86	24.4367
52.08	24.7379
52.3	13.0582
52.52	2.10851
52.74	8.07366
52.96	22.9496
53.18	12.8612
53.4	5.51878
53.62	14.6043
53.84	19.0616
54.06	8.96912
54.28	19.2287
54.5	15.7824
54.72	14.6788
54.94	23.9145
55.16	0.772524
55.38	0.049692
55.6	6.32665
55.82	0.73098
56.04	13.2178
56.26	10.4845
56.48	4.75347
56.7	7.02688
56.92	8.18221
57.14	3.63967
57.36	4.89276
57.58	5.88084
57.8	13.3628
58.02	18.5993
58.24	3.55987
58.46	12.3857
58.68	8.38559
58.9	4.20816
59.12	8.27449
59.34	9.18752
59.56	9.10838
59.78	8.05907
60	3.60834
60.22	17.8718
60.44	16.7958
60.66	8.94683
60.88	4.4266
61.1	12.633
61.32	17.6174
61.54	20.9517
61.76	9.09258
61.98	3.53714
62.2	5.55156
62.42	18.2008
62.64	4.78828
62.86	14.258
63.08	11.0415
63.3	6.75289
63.52	6.51906
63.74	8.41509
63.96	10.9036
64.18	0.384132
64.4	0.775288
64.62	7.08458
64.84	6.81297
65.06	5.92433
65.28	2.34664
65.5	11.3117
65.72	15.255
65.94	15.6068
66.16	2.62482
66.38	14.584
66.6	10.6659
66.82	13.8596
67.04	9.89446
67.26	5.88783
67.48	9.27595
67.7	1.26507
67.92	20.2928
68.14	14.1537
68.36	10.9257
68.58	8.94345
68.8	7.05054
69.02	6.96492
69.24	8.10361
69.46	1.47263
69.68	14.8095
69.9	5.17488
70.12	13.1006
70.34	8.16491
70.56	4.44435
70.78	6.58927
71	8.55109
71.22	16.5538
71.44	9.51031
71.66	4.35887
71.88	12.1494
72.1	15.2956
72.32	9.31436
72.54	11.5319
72.76	1.68752
72.98	11.83
73.2	16.1365
73.42	5.65118
73.64	5.81688
73.86	1.10836
74.08	5.01938
74.3	2.08914
74.52	3.9572
74.74	8.70999
74.96	7.54451
75.18	7.71846
75.4	10.6346
75.62	4.13805
75.84	10.1422
76.06	5.11372
76.28	3.2923
76.5	3.21465
76.72	2.95152
76.94	13.673
77.16	8.36367
77.38	8.98947
77.6	8.28554
77.82	23.6281
78.04	8.87868
78.26	10.7411
78.48	17.0603
78.7	8.61887
78.92	17.574
79.14	3.57826
79.36	11.5854
79.58	8.92348
79.8	19.0946
80.02	11.376
80.24	6.37676
80.46	0.682678
80.68	0.88549
80.9	11.922
81.12	10.5578
81.34	1.81674
81.56	8.02513
81.78	1.87297
82	12.2449
82.22	5.42707
82.44	8.74908
82.66	12.1856
82.88	14.1944
83.1	1.31341
83.32	11.6407
83.54	2.52792
83.76	11.2952
83.98	8.60376
84.2	0.669857
84.42	3.47745
84.64	11.6459
84.86	14.3205
85.08	10.2337
85.3	5.19117
85.52	1.68759
85.74	12.5567
85.96	7.31596
86.18	5.23322
86.4	0.140711
86.62	3.72294
86.84	4.39338
87.06	11.2517
87.28	5.42618
87.5	8.64419
87.72	20.4464
87.94	10.6465
88.16	7.48463
88.38	3.93255
88.6	5.20211
88.82	7.48934
89.04	3.53187
89.26	3.7079
89.48	16.8891
89.7	8.03429
89.92	0.642519
