Measurement: Powder, Xray Data XY Processed
Mineral: Beryllonite
Rruff sample: R060299
Ideal chemistry: NaBePO_4_
Locality: Paprok, near Kamdesh, Nuristan, Kunar Province, Afghanistan
Source: Herb Obodda
Description: Pale blue fragment
Diffraction sample description: Powder
Measured chemistry: Na_1.00_Be_1.00_P_1.00_O_4_
Cell parameters: a: 8.1372(4) b: 7.7988(3) c: 14.2010(9) alpha: 90 beta: 90 gamma: 90 volume: 901.20(6) crystal system: orthorhombic
x	intensity
5	0
5.22	9.75
5.44	12.344
5.66	17.524
5.88	5.826
6.1	10.026
6.32	8.584
6.54	6.206
6.76	4.457
6.98	17.907
7.2	6.281
7.42	0.078
7.64	0.327
7.86	2.688
8.08	3.14
8.3	1.591
8.52	5.225
8.74	2.582
8.96	22.521
9.18	3.816
9.4	3.06
9.62	10.355
9.84	3.42
10.06	4.863
10.28	4.141
10.5	7.222
10.72	12.258
10.94	6.143
11.16	4.221
11.38	5.045
11.6	0.809
11.82	5.665
12.04	5.367
12.26	7.006
12.48	9.675
12.7	8.266
12.92	0.066
13.14	8.642
13.36	3.456
13.58	9.013
13.8	0.808
14.02	8.556
14.24	4.307
14.46	8.132
14.68	6.938
14.9	2.65
15.12	4.518
15.34	3.66
15.56	8.642
15.78	29.768
16	5.627
16.22	15.512
16.44	2.406
16.66	3.405
16.88	7.273
17.1	2.164
17.32	5.193
17.54	4.952
17.76	1.187
17.98	12.585
18.2	9.008
18.42	2.249
18.64	5.315
18.86	7.356
19.08	1.739
19.3	1.512
19.52	4.484
19.74	1.585
19.96	11.344
20.18	135.47
20.4	6.359
20.62	5.681
20.84	4.299
21.06	1.027
21.28	3.404
21.5	0.585
21.72	91.1
21.94	15.048
22.16	14.082
22.38	5.275
22.6	13.097
22.82	461.492
23.04	20.315
23.26	15.986
23.48	1.418
23.7	3.587
23.92	0.935
24.14	1.36
24.36	12.821
24.58	463.117
24.8	38.602
25.02	2.182
25.24	2.411
25.46	110.804
25.68	13.039
25.9	1.191
26.12	13.395
26.34	11.954
26.56	12.227
26.78	6.372
27	22.444
27.22	9.394
27.44	2.14
27.66	25.194
27.88	12.554
28.1	9.986
28.32	2.381
28.54	15.48
28.76	12.632
28.98	7.042
29.2	2.835
29.42	1.602
29.64	11.965
29.86	22.789
30.08	11.933
30.3	11.372
30.52	5.075
30.74	10.745
30.96	2.315
31.18	30.043
31.4	9.18
31.62	78.154
31.84	141.601
32.06	8.016
32.28	7.145
32.5	7.475
32.72	11.848
32.94	19.74
33.16	14.067
33.38	35.381
33.6	50.231
33.82	11.627
34.04	7.932
34.26	12.608
34.48	4.239
34.7	0.491
34.92	8.825
35.14	16.155
35.36	13.584
35.58	11.237
35.8	7.498
36.02	21.567
36.24	15.963
36.46	8.035
36.68	8.229
36.9	14.674
37.12	0.584
37.34	10.458
37.56	13.443
37.78	0.692
38	62.203
38.22	102.712
38.44	13.344
38.66	7.413
38.88	1.48
39.1	0.21
39.32	10.184
39.54	33.671
39.76	52.011
39.98	112.288
40.2	17.696
40.42	16.408
40.64	15.135
40.86	9.781
41.08	23.818
41.3	27.113
41.52	10.732
41.74	28.67
41.96	10.117
42.18	6.682
42.4	6.391
42.62	4.936
42.84	7.752
43.06	6.091
43.28	23.633
43.5	5.844
43.72	16.869
43.94	9.557
44.16	9.874
44.38	18.782
44.6	32.632
44.82	1.298
45.04	11.165
45.26	9.561
45.48	19.583
45.7	12.466
45.92	10.925
46.14	13.61
46.36	13.754
46.58	111.438
46.8	12.326
47.02	3.145
47.24	0.273
47.46	8.251
47.68	2.191
47.9	2.385
48.12	5.376
48.34	11.768
48.56	6.925
48.78	9.708
49	10.997
49.22	9.693
49.44	10.768
49.66	6.838
49.88	2.059
50.1	9.899
50.32	19.018
50.54	13.044
50.76	16.254
50.98	10.366
51.2	8.175
51.42	5.996
51.64	3.08
51.86	5.623
52.08	0.929
52.3	13.851
52.52	14.791
52.74	11.752
52.96	7.904
53.18	5.545
53.4	0.544
53.62	12.735
53.84	3.79
54.06	9.142
54.28	6.749
54.5	7.602
54.72	4.966
54.94	9.538
55.16	11.994
55.38	0.455
55.6	2.688
55.82	9.946
56.04	1.921
56.26	6.943
56.48	8.622
56.7	3.527
56.92	11.546
57.14	0.317
57.36	5.961
57.58	11.467
57.8	5.227
58.02	21.233
58.24	4.976
58.46	7.071
58.68	5.434
58.9	6.58
59.12	2.08
59.34	8.371
59.56	11.394
59.78	4.188
60	7.118
60.22	3.63
60.44	0.463
60.66	14.392
60.88	18.087
61.1	15.644
61.32	2.463
61.54	9.383
61.76	26.061
61.98	0.501
62.2	6.904
62.42	5.085
62.64	0.121
62.86	2.124
63.08	0.081
63.3	0.048
63.52	2.02
63.74	4.852
63.96	3.456
64.18	5.171
64.4	20.175
64.62	10.248
64.84	5.579
65.06	12.33
65.28	6.602
65.5	4.847
65.72	2.148
65.94	10.429
66.16	0.002
66.38	20.297
66.6	12.565
66.82	12.492
67.04	7.241
67.26	8.041
67.48	2.053
67.7	1.896
67.92	4.794
68.14	13.44
68.36	0.578
68.58	6.07
68.8	15.891
69.02	6.658
69.24	12.613
69.46	11.985
69.68	6.945
69.9	8.487
70.12	6.91
70.34	14.851
70.56	13.574
70.78	17.692
71	5.951
71.22	18.926
71.44	3.106
71.66	7.399
71.88	5.196
72.1	2.253
72.32	1.624
72.54	7.022
72.76	6.971
72.98	13.937
73.2	15.05
73.42	0.097
73.64	13.43
73.86	4.526
74.08	5.5
74.3	1.544
74.52	4.766
74.74	3.023
74.96	5.173
75.18	10.292
75.4	2.223
75.62	8.058
75.84	8.922
76.06	14.86
76.28	5.633
76.5	7.462
76.72	1.556
76.94	13.576
77.16	2.465
77.38	9.605
77.6	6.659
77.82	7.959
78.04	11.096
78.26	0.262
78.48	5.385
78.7	9.523
78.92	9.827
79.14	13.669
79.36	16.491
79.58	6.595
79.8	8.535
80.02	3.529
80.24	4.187
80.46	1.046
80.68	2.763
80.9	5.584
81.12	6.505
81.34	12.252
81.56	4.131
81.78	11.175
82	3.083
82.22	5.859
82.44	13.83
82.66	6.971
82.88	3.138
83.1	1.387
83.32	2.948
83.54	7.963
83.76	5.076
83.98	11.25
84.2	13.291
84.42	3.319
84.64	11.513
84.86	15.139
85.08	8.077
85.3	14.835
85.52	8.25
85.74	6.838
85.96	3.76
86.18	2.408
86.4	10.199
86.62	13.86
86.84	11.636
87.06	3.425
87.28	11.592
87.5	15.651
87.72	2.921
87.94	8.075
88.16	1.477
88.38	1.679
88.6	18.323
88.82	7.503
89.04	5.005
89.26	10.586
89.48	3.937
89.7	5.282
89.92	0.173
