Measurement: Powder, Xray Data XY Processed
Mineral: Beryl
Rruff sample: R060944
Ideal chemistry: Be_3_Al_2_Si_6_O_18_
Locality: Habachtal, Salzburg, Austria
Source: Lawrence W. Snee
Description: Green hexagonal prisms in a muscovite schist, variety emerald. Note that there are micro inclusions of actinolite. The Raman signal is a mixture of the two phases.
Diffraction sample description: Powder
Measured chemistry: Be_3.00_(Al_1.59_Mg_0.33_Fe^3+^_0.04_Cr^3+^_0.04_)_Σ=2_Si_6.00_O_18_·Na_0.33_ ; bright inclusions are actinolite
Cell parameters: a: 9.2527(3) b: 9.2527(3) c: 9.1971(3) alpha: 90 beta: 90 gamma: 120 volume: 681.89(4) crystal system: hexagonal
x	intensity
5	0
5.22	8.89629
5.44	10.7964
5.66	5.9389
5.88	0.045681
6.1	13.3553
6.32	12.2218
6.54	3.4207
6.76	8.90814
6.98	15.2545
7.2	11.6703
7.42	0.380949
7.64	13.5454
7.86	7.10219
8.08	1.23929
8.3	8.13148
8.52	13.8917
8.74	1.3654
8.96	8.01792
9.18	2.05659
9.4	7.57453
9.62	7.82192
9.84	14.3353
10.06	10.2826
10.28	5.16544
10.5	77.3455
10.72	19.5654
10.94	65.0754
11.16	24.2897
11.38	2.73319
11.6	5.14559
11.82	6.08247
12.04	5.80484
12.26	7.77505
12.48	5.15836
12.7	6.18832
12.92	0.689116
13.14	14.5318
13.36	7.24715
13.58	0.239265
13.8	16.5928
14.02	8.49811
14.24	13.1681
14.46	11.8863
14.68	5.69296
14.9	0.821422
15.12	3.03529
15.34	3.07887
15.56	3.00129
15.78	9.18022
16	9.47134
16.22	3.70152
16.44	0.502985
16.66	2.47175
16.88	4.52782
17.1	3.92623
17.32	7.94167
17.54	1.71931
17.76	10.7289
17.98	3.52602
18.2	11.9722
18.42	0.48496
18.64	11.3114
18.86	0.429276
19.08	3.61872
19.3	294.558
19.52	12.8923
19.74	9.54533
19.96	0.654257
20.18	2.35534
20.4	9.77602
20.62	8.06993
20.84	6.19846
21.06	8.23411
21.28	6.90328
21.5	4.75299
21.72	4.16983
21.94	9.9519
22.16	26.9896
22.38	29.131
22.6	9.89064
22.82	4.40566
23.04	8.58631
23.26	5.79419
23.48	0.984875
23.7	6.23074
23.92	7.47687
24.14	20.4615
24.36	7.77924
24.58	14.6614
24.8	6.56098
25.02	1.60678
25.24	1.54873
25.46	1.00736
25.68	15.4268
25.9	6.90385
26.12	3.18277
26.34	26.2888
26.56	3.30027
26.78	10.6837
27	1.43006
27.22	54.2399
27.44	181.553
27.66	11.26
27.88	8.21015
28.1	4.10955
28.32	10.321
28.54	42.1828
28.76	1.68956
28.98	10.0148
29.2	4.65755
29.42	26.4159
29.64	126.921
29.86	20.8031
30.08	9.43031
30.3	1.76562
30.52	12.5752
30.74	5.60653
30.96	29.9672
31.18	310.824
31.4	19.1128
31.62	9.08018
31.84	9.06519
32.06	17.2403
32.28	8.49093
32.5	1.08512
32.72	6.30061
32.94	6.59177
33.16	21.9412
33.38	0.262745
33.6	11.8571
33.82	2.72986
34.04	4.98155
34.26	12.2158
34.48	7.45342
34.7	4.23399
34.92	2.08787
35.14	17.5989
35.36	11.665
35.58	65.1403
35.8	8.6518
36.02	2.77464
36.24	7.91269
36.46	10.0198
36.68	1.08225
36.9	3.19842
37.12	10.0218
37.34	4.77646
37.56	1.54536
37.78	20.1837
38	12.7901
38.22	11.6465
38.44	2.25803
38.66	16.4036
38.88	6.47996
39.1	9.64189
39.32	7.77786
39.54	4.67376
39.76	3.46371
39.98	4.87
40.2	9.12573
40.42	7.29493
40.64	11.8631
40.86	15.8591
41.08	2.06628
41.3	9.92711
41.52	9.17679
41.74	19.2191
41.96	20.4715
42.18	5.53468
42.4	9.25198
42.62	3.11726
42.84	12.0226
43.06	8.01528
43.28	7.73076
43.5	16.8763
43.72	1.80477
43.94	13.4311
44.16	7.28336
44.38	10.292
44.6	4.48599
44.82	11.7384
45.04	8.52925
45.26	30.8059
45.48	41.0936
45.7	6.72452
45.92	0.941248
46.14	4.36644
46.36	0.22925
46.58	6.12889
46.8	4.50038
47.02	8.93679
47.24	3.09111
47.46	6.64918
47.68	5.79815
47.9	6.0744
48.12	6.61787
48.34	6.48237
48.56	8.47915
48.78	4.35051
49	6.34295
49.22	8.46611
49.44	4.1385
49.66	9.01957
49.88	8.92914
50.1	4.9049
50.32	6.95309
50.54	0.512618
50.76	27.92
50.98	9.1069
51.2	10.0612
51.42	3.93647
51.64	0.389845
51.86	2.92775
52.08	3.3414
52.3	71.2971
52.52	67.157
52.74	10.0842
52.96	4.99034
53.18	12.8537
53.4	15.8053
53.62	9.28464
53.84	3.45544
54.06	4.18214
54.28	6.04036
54.5	3.91809
54.72	5.23482
54.94	4.37359
55.16	1.39577
55.38	10.1869
55.6	17.1402
55.82	12.2805
56.04	5.00913
56.26	32.1544
56.48	10.4328
56.7	15.2536
56.92	19.5175
57.14	8.35617
57.36	4.23327
57.58	18.2054
57.8	7.27289
58.02	13.4473
58.24	4.40065
58.46	11.4203
58.68	16.7547
58.9	6.86546
59.12	1.3803
59.34	4.57981
59.56	3.538
59.78	6.45043
60	0.317492
60.22	0.820815
60.44	6.80286
60.66	1.62213
60.88	10.6985
61.1	31.3642
61.32	13.7163
61.54	4.08758
61.76	6.46031
61.98	10.4547
62.2	5.77227
62.42	7.10294
62.64	11.3652
62.86	8.46375
63.08	0.33857
63.3	9.68869
63.52	3.73141
63.74	7.3755
63.96	28.966
64.18	10.7721
64.4	2.97257
64.62	7.04046
64.84	21.1328
65.06	6.15134
65.28	1.32653
65.5	4.28423
65.72	7.36039
65.94	5.3521
66.16	3.6461
66.38	2.87813
66.6	9.83076
66.82	4.04594
67.04	1.05335
67.26	7.88783
67.48	1.09593
67.7	11.7824
67.92	0.998205
68.14	16.1163
68.36	7.05051
68.58	19.8748
68.8	11.2056
69.02	5.16218
69.24	6.02474
69.46	8.97914
69.68	0.017288
69.9	2.31002
70.12	1.12363
70.34	9.93317
70.56	7.25436
70.78	0.324585
71	11.576
71.22	4.131
71.44	5.11243
71.66	2.98356
71.88	1.1408
72.1	5.11779
72.32	10.0786
72.54	0.884927
72.76	4.96951
72.98	10.4915
73.2	1.5028
73.42	3.33044
73.64	7.17805
73.86	37.9881
74.08	23.9399
74.3	5.74547
74.52	15.1765
74.74	15.8625
74.96	18.0258
75.18	16.6065
75.4	7.03231
75.62	8.00373
75.84	4.40172
76.06	8.83353
76.28	9.12367
76.5	0.260387
76.72	6.37618
76.94	7.05522
77.16	1.94411
77.38	6.83924
77.6	8.5998
77.82	0.311683
78.04	2.41418
78.26	8.08718
78.48	5.71643
78.7	3.61058
78.92	4.96272
79.14	5.96516
79.36	5.85655
79.58	3.16514
79.8	4.30723
80.02	9.40484
80.24	4.16913
80.46	10.2933
80.68	7.52113
80.9	6.6984
81.12	12.8604
81.34	2.62225
81.56	2.82338
81.78	1.09866
82	0.279017
82.22	12.7573
82.44	9.71344
82.66	9.72898
82.88	8.94237
83.1	6.81562
83.32	3.74439
83.54	3.66578
83.76	15.7704
83.98	7.66621
84.2	15.6761
84.42	8.72687
84.64	7.51455
84.86	5.54957
85.08	4.52813
85.3	5.50254
85.52	2.56382
85.74	10.4485
85.96	1.34537
86.18	0.97146
86.4	2.932
86.62	4.83856
86.84	18.7194
87.06	8.78381
87.28	4.9443
87.5	0.027697
87.72	5.00732
87.94	5.27546
88.16	6.85982
88.38	6.2312
88.6	4.67143
88.82	5.9629
89.04	11.564
89.26	11.8149
89.48	5.34761
89.7	9.9557
89.92	2.68896
