Measurement: Powder, Xray Data XY Processed
Mineral: Beryllonite
Rruff sample: R060552
Ideal chemistry: NaBePO_4_
Locality: Afghanistan
Source: Gemological Institute of America
Description: Colorless fragment
Diffraction sample description: Powder
Measured chemistry: Na_1.00_Be_1.00_P_1.00_O_4_ ; Be not measured but estimated by difference and stoichiometry
Cell parameters: a: 8.1343(3) b: 7.7984(4) c: 14.199(1) alpha: 90 beta: 90.051(6) gamma: 90 volume: 900.72(7) crystal system: monoclinic
x	intensity
5	0
5.22	20.4884
5.44	3.09095
5.66	4.28734
5.88	3.5262
6.1	9.46985
6.32	1.55753
6.54	8.89958
6.76	14.3415
6.98	5.91149
7.2	6.54028
7.42	3.06677
7.64	5.25484
7.86	3.74133
8.08	7.0647
8.3	8.30167
8.52	0.534155
8.74	4.94659
8.96	8.84251
9.18	6.8975
9.4	5.14332
9.62	7.62739
9.84	11.6064
10.06	3.84853
10.28	11.9838
10.5	5.39495
10.72	9.67916
10.94	8.70295
11.16	3.7095
11.38	4.75134
11.6	1.57245
11.82	3.00289
12.04	4.69714
12.26	6.61946
12.48	4.20023
12.7	4.7823
12.92	7.34634
13.14	3.77883
13.36	7.61587
13.58	1.11932
13.8	10.7334
14.02	7.3631
14.24	11.1381
14.46	3.00708
14.68	7.50439
14.9	4.44813
15.12	3.54452
15.34	3.19732
15.56	10.1639
15.78	26.8939
16	0.184309
16.22	3.21714
16.44	6.91788
16.66	6.8219
16.88	3.91243
17.1	10.9367
17.32	10.9299
17.54	2.86197
17.76	0.963088
17.98	6.17499
18.2	5.30299
18.42	3.92598
18.64	4.85113
18.86	4.59467
19.08	8.41917
19.3	8.15592
19.52	4.03796
19.74	3.14691
19.96	7.95898
20.18	126.946
20.4	7.91667
20.62	9.65225
20.84	1.53992
21.06	6.3918
21.28	8.2124
21.5	3.23253
21.72	99.0748
21.94	12.9727
22.16	25.4683
22.38	8.88991
22.6	5.5494
22.82	419.355
23.04	15.2208
23.26	8.98658
23.48	1.2538
23.7	10.4221
23.92	14.2024
24.14	13.9107
24.36	3.50017
24.58	468.361
24.8	31.4858
25.02	10.2795
25.24	19.9041
25.46	97.9914
25.68	10.9142
25.9	4.61833
26.12	10.7839
26.34	9.6682
26.56	3.64869
26.78	1.9226
27	0.063919
27.22	8.69793
27.44	9.69598
27.66	8.35421
27.88	14.747
28.1	18.5105
28.32	11.8814
28.54	13.4858
28.76	12.2147
28.98	7.24267
29.2	9.12393
29.42	1.54923
29.64	17.1234
29.86	19.1277
30.08	15.718
30.3	9.5713
30.52	3.98628
30.74	15.5393
30.96	2.14238
31.18	35.0056
31.4	8.36035
31.62	68.0856
31.84	155.12
32.06	7.6348
32.28	17.1754
32.5	2.41971
32.72	12.6903
32.94	6.15764
33.16	13.3749
33.38	29.1429
33.6	47.2577
33.82	3.05659
34.04	7.95394
34.26	25.9894
34.48	0.030827
34.7	1.2157
34.92	4.39037
35.14	5.80145
35.36	7.83402
35.58	7.62603
35.8	5.3873
36.02	17.0433
36.24	6.73559
36.46	6.95695
36.68	8.14319
36.9	14.5731
37.12	7.63922
37.34	4.67463
37.56	4.36395
37.78	9.41334
38	85.6825
38.22	84.3374
38.44	14.5109
38.66	16.3331
38.88	12.7827
39.1	0.01009
39.32	7.14366
39.54	38.5747
39.76	64.0104
39.98	132.57
40.2	23.754
40.42	37.7769
40.64	3.68391
40.86	10.6652
41.08	15.8881
41.3	14.7211
41.52	13.1361
41.74	28.9866
41.96	10.7826
42.18	4.32931
42.4	2.17475
42.62	4.31706
42.84	17.5357
43.06	9.9225
43.28	29.063
43.5	1.66679
43.72	7.32859
43.94	2.02324
44.16	4.32012
44.38	18.4695
44.6	25.4453
44.82	4.27251
45.04	6.09387
45.26	14.3019
45.48	10.2393
45.7	9.72328
45.92	3.46658
46.14	11.1838
46.36	13.9043
46.58	125.597
46.8	8.7654
47.02	9.51272
47.24	3.99238
47.46	0.62332
47.68	6.05839
47.9	13.4926
48.12	8.64292
48.34	10.815
48.56	8.14581
48.78	8.09851
49	16.7923
49.22	15.0411
49.44	4.91511
49.66	10.3352
49.88	4.57457
50.1	5.91747
50.32	25.1688
50.54	13.0992
50.76	6.96739
50.98	3.18831
51.2	9.63721
51.42	0.22496
51.64	3.2243
51.86	3.38669
52.08	6.63145
52.3	0.53497
52.52	20.4223
52.74	3.3975
52.96	8.77908
53.18	3.5236
53.4	6.49849
53.62	10.6058
53.84	10.7551
54.06	7.01611
54.28	1.89363
54.5	6.73399
54.72	6.74395
54.94	11.8494
55.16	16.0019
55.38	6.87921
55.6	10.6529
55.82	3.64204
56.04	2.64132
56.26	11.5846
56.48	2.42177
56.7	1.68057
56.92	4.48735
57.14	3.35677
57.36	9.32627
57.58	7.21492
57.8	2.11251
58.02	7.96747
58.24	11.1065
58.46	14.2199
58.68	4.50012
58.9	10.5274
59.12	4.83793
59.34	6.76467
59.56	6.87448
59.78	7.72118
60	16.6183
60.22	7.46342
60.44	6.25492
60.66	3.04858
60.88	9.86906
61.1	8.84572
61.32	12.0564
61.54	5.23734
61.76	30.4754
61.98	9.40943
62.2	4.47454
62.42	15.0762
62.64	1.11912
62.86	6.01537
63.08	5.87057
63.3	5.58192
63.52	0.298268
63.74	0.318504
63.96	7.12445
64.18	0.668288
64.4	21.8746
64.62	10.122
64.84	9.96939
65.06	4.0605
65.28	3.54914
65.5	2.83739
65.72	1.27865
65.94	3.60733
66.16	5.98757
66.38	9.3908
66.6	5.6947
66.82	6.70959
67.04	6.72799
67.26	9.47992
67.48	4.61011
67.7	12.3093
67.92	9.23639
68.14	2.07891
68.36	4.97663
68.58	2.17757
68.8	15.4939
69.02	16.7372
69.24	19.7331
69.46	11.717
69.68	2.8784
69.9	2.89559
70.12	6.2587
70.34	2.40129
70.56	8.83785
70.78	7.23001
71	3.80101
71.22	10.0052
71.44	2.14824
71.66	0.723573
71.88	8.25104
72.1	17.1871
72.32	5.19092
72.54	1.0606
72.76	3.99995
72.98	15.858
73.2	11.0647
73.42	11.1043
73.64	5.56146
73.86	12.5075
74.08	17.5022
74.3	4.61437
74.52	3.6602
74.74	8.91724
74.96	0.87134
75.18	2.98896
75.4	5.9386
75.62	12.6255
75.84	7.23798
76.06	6.69281
76.28	9.60831
76.5	2.54645
76.72	7.54119
76.94	10.5237
77.16	12.3913
77.38	7.60865
77.6	10.5645
77.82	0.764035
78.04	5.89848
78.26	6.9849
78.48	4.06866
78.7	8.8482
78.92	10.0229
79.14	15.167
79.36	14.2531
79.58	17.686
79.8	8.88775
80.02	6.25791
80.24	3.06311
80.46	8.1621
80.68	6.10267
80.9	1.23958
81.12	14.4843
81.34	10.2393
81.56	5.06866
81.78	8.75621
82	6.68784
82.22	3.20126
82.44	12.8949
82.66	7.93483
82.88	5.86468
83.1	6.94515
83.32	4.97571
83.54	2.18435
83.76	5.36682
83.98	5.34414
84.2	5.23846
84.42	1.03686
84.64	6.90935
84.86	12.358
85.08	0.00398
85.3	2.6301
85.52	7.17411
85.74	7.68138
85.96	1.58099
86.18	1.9911
86.4	9.73311
86.62	9.69372
86.84	8.88933
87.06	12.7858
87.28	5.50449
87.5	6.63103
87.72	4.9222
87.94	7.23739
88.16	5.47679
88.38	7.78395
88.6	8.22658
88.82	5.71457
89.04	1.76792
89.26	3.04786
89.48	13.5962
89.7	6.68144
89.92	0.457984
