Measurement: Powder, Xray Data XY Processed
Mineral: Beryl
Rruff sample: R050120
Ideal chemistry: Be_3_Al_2_Si_6_O_18_
Locality: Cruziero mine, San Jose, Minas Gerais, Brazil
Source: Carlos and Paulo Vasconcelos
Description: Yellow gemmy fragment
Diffraction sample description: Powder
Measured chemistry: (Be_2.76_Li_0.24_)_Σ=3_Al_2.00_Si_6.00_O_18_·Na_0.24_
Cell parameters: a: 9.2177(2) b: 9.2177(2) c: 9.2241(5) alpha: 90. beta: 90. gamma: 120. volume: 678.74(3) crystal system: hexagonal
x	intensity
5	0
5.22	20.5839
5.44	0.731339
5.66	8.83794
5.88	0.139204
6.1	9.18669
6.32	14.674
6.54	7.59022
6.76	4.70781
6.98	15.3189
7.2	11.1978
7.42	2.08879
7.64	11.7865
7.86	13.3398
8.08	5.90247
8.3	16.8072
8.52	4.19968
8.74	11.6165
8.96	8.20881
9.18	1.81525
9.4	4.07695
9.62	14.7605
9.84	10.5611
10.06	32.1312
10.28	7.96436
10.5	6.9273
10.72	10.2492
10.94	54.29
11.16	346.073
11.38	15.7047
11.6	14.5072
11.82	9.47255
12.04	8.61923
12.26	10.2424
12.48	7.64985
12.7	5.08603
12.92	11.3553
13.14	8.96073
13.36	1.09367
13.58	7.29682
13.8	5.70157
14.02	8.12906
14.24	9.48923
14.46	12.8334
14.68	5.68896
14.9	11.7986
15.12	0.313758
15.34	10.4023
15.56	1.61638
15.78	6.85817
16	9.00497
16.22	2.27167
16.44	2.21373
16.66	6.18474
16.88	6.20078
17.1	4.13453
17.32	18.3268
17.54	4.89375
17.76	7.65672
17.98	8.37853
18.2	7.7472
18.42	6.3925
18.64	8.0485
18.86	7.86126
19.08	4.58253
19.3	544.656
19.52	6.24846
19.74	4.66737
19.96	10.1528
20.18	10.278
20.4	11.7961
20.62	4.30204
20.84	7.47294
21.06	5.29379
21.28	4.38724
21.5	6.44311
21.72	4.34773
21.94	6.82609
22.16	12.369
22.38	46.2264
22.6	9.52121
22.82	11.2903
23.04	0.104056
23.26	4.10792
23.48	1.11525
23.7	7.24845
23.92	3.89211
24.14	10.6876
24.36	10.3281
24.58	5.17737
24.8	16.9362
25.02	1.74256
25.24	12.9852
25.46	11.528
25.68	12.1811
25.9	0.318162
26.12	2.00522
26.34	2.23109
26.56	5.16605
26.78	10.6903
27	4.08422
27.22	43.6649
27.44	2462.37
27.66	15.9277
27.88	1.67581
28.1	8.55969
28.32	9.64229
28.54	4.77334
28.76	0.895756
28.98	5.73523
29.2	7.2076
29.42	14.0527
29.64	293.111
29.86	8.39006
30.08	0.906012
30.3	6.14457
30.52	0.049143
30.74	4.93503
30.96	17.8849
31.18	871.014
31.4	44.2578
31.62	25.2538
31.84	10.9012
32.06	11.3153
32.28	2.96381
32.5	4.51205
32.72	1.82691
32.94	7.79395
33.16	6.51969
33.38	14.1895
33.6	9.42835
33.82	12.9909
34.04	11.8225
34.26	6.77361
34.48	0.716619
34.7	6.85489
34.92	10.5098
35.14	25.8362
35.36	8.85741
35.58	131.858
35.8	7.89473
36.02	10.3286
36.24	5.34363
36.46	16.3708
36.68	8.38521
36.9	12.474
37.12	10.5347
37.34	4.28814
37.56	13.9055
37.78	17.0065
38	10.9144
38.22	10.5912
38.44	0.503206
38.66	4.33767
38.88	7.57632
39.1	30.8156
39.32	10.2765
39.54	7.15549
39.76	6.92529
39.98	3.15728
40.2	8.00172
40.42	4.9212
40.64	0.141019
40.86	67.5773
41.08	1.47387
41.3	10.5423
41.52	5.33286
41.74	15.1864
41.96	126.206
42.18	9.19951
42.4	0.022613
42.62	3.03094
42.84	12.126
43.06	11.2309
43.28	19.4599
43.5	16.0999
43.72	3.78208
43.94	15.0873
44.16	5.19586
44.38	2.39914
44.6	13.554
44.82	7.63932
45.04	6.75531
45.26	17.8692
45.48	45.2217
45.7	20.1582
45.92	0.697687
46.14	0.723109
46.36	7.74888
46.58	8.42616
46.8	2.80246
47.02	1.82125
47.24	1.98517
47.46	6.97351
47.68	5.33034
47.9	11.1054
48.12	14.1227
48.34	7.21767
48.56	3.01767
48.78	0.997561
49	10.1065
49.22	6.02883
49.44	1.71504
49.66	3.49342
49.88	18.3879
50.1	12.9058
50.32	5.99071
50.54	6.74967
50.76	23.4495
50.98	32.3121
51.2	2.02765
51.42	7.56712
51.64	5.96414
51.86	0.436568
52.08	1.47804
52.3	14.3965
52.52	226.222
52.74	27.0563
52.96	1.28523
53.18	8.12229
53.4	3.38285
53.62	19.7609
53.84	25.2956
54.06	7.12031
54.28	1.1719
54.5	2.20779
54.72	1.48562
54.94	4.88245
55.16	4.89204
55.38	5.7705
55.6	6.9189
55.82	4.75536
56.04	5.93524
56.26	23.3815
56.48	49.763
56.7	7.3389
56.92	3.08677
57.14	7.62767
57.36	3.01082
57.58	7.06146
57.8	10.2035
58.02	0.36752
58.24	5.14549
58.46	8.24489
58.68	87.9519
58.9	10.1976
59.12	6.41262
59.34	11.5399
59.56	0.371612
59.78	3.66722
60	6.57963
60.22	23.4659
60.44	5.92971
60.66	7.67272
60.88	12.5217
61.1	86.0188
61.32	56.9952
61.54	0.581076
61.76	1.37781
61.98	2.4467
62.2	12.9305
62.42	7.23522
62.64	8.46763
62.86	0.543015
63.08	11.37
63.3	1.18416
63.52	8.33845
63.74	12.3395
63.96	16.8367
64.18	7.71368
64.4	7.06033
64.62	2.61892
64.84	9.50025
65.06	39.5803
65.28	9.76176
65.5	2.09991
65.72	2.3499
65.94	8.28357
66.16	1.60118
66.38	5.68455
66.6	7.96114
66.82	1.46912
67.04	7.52598
67.26	11.4834
67.48	4.43355
67.7	10.504
67.92	6.63647
68.14	1.68925
68.36	21.1481
68.58	9.24176
68.8	6.6687
69.02	3.67632
69.24	4.96106
69.46	8.42585
69.68	3.65831
69.9	6.73973
70.12	6.69557
70.34	10.707
70.56	6.53101
70.78	9.13473
71	5.95983
71.22	13.8044
71.44	1.9048
71.66	0.789495
71.88	3.44681
72.1	2.43017
72.32	2.45083
72.54	2.47351
72.76	18.2931
72.98	0.004692
73.2	12.8233
73.42	14.8516
73.64	6.57296
73.86	1.78867
74.08	30.9938
74.3	19.6821
74.52	0.283122
74.74	8.79833
74.96	95.1274
75.18	49.3571
75.4	9.61554
75.62	5.15811
75.84	5.18346
76.06	5.38424
76.28	1.42688
76.5	6.88938
76.72	8.56816
76.94	5.58319
77.16	8.45403
77.38	3.02901
77.6	8.7129
77.82	0.442409
78.04	0.598338
78.26	5.29059
78.48	12.2422
78.7	10.2754
78.92	2.34273
79.14	3.10988
79.36	174.243
79.58	88.9989
79.8	11.388
80.02	9.72166
80.24	6.8753
80.46	1.13006
80.68	2.98906
80.9	7.05097
81.12	5.06874
81.34	6.79838
81.56	4.65081
81.78	5.63236
82	3.62509
82.22	4.51592
82.44	2.41335
82.66	3.37241
82.88	17.3464
83.1	2.68324
83.32	4.46283
83.54	13.4895
83.76	8.46746
83.98	6.3064
84.2	5.15677
84.42	1.89488
84.64	1.89927
84.86	6.11683
85.08	4.15921
85.3	17.2744
85.52	4.30962
85.74	0.200802
85.96	2.27637
86.18	3.27382
86.4	8.2677
86.62	8.39366
86.84	5.36565
87.06	14.113
87.28	3.95403
87.5	6.18874
87.72	2.23913
87.94	1.56232
88.16	6.60978
88.38	10.7466
88.6	0.988825
88.82	4.20805
89.04	6.25549
89.26	6.71619
89.48	4.76021
89.7	3.65997
89.92	8.50001
