Measurement: Powder, Xray Data XY Processed
Mineral: Beryl
Rruff sample: R050121
Ideal chemistry: Be_3_Al_2_Si_6_O_18_
Locality: Cruziero mine, San Jose, Minas Gerais, Brazil
Source: Carlos and Paulo Vasconcelos
Description: Light blue fragment, variety aquamarine
Diffraction sample description: Powder
Measured chemistry: (Be_0.96_Li_0.04_)_3_Al_2.00_Si_6.00_O_18_Î‡Na_0.09_Mg_0.03_
Cell parameters: a: 9.2129(3) b: 9.2129(3) c: 9.1980(6) alpha: 90. beta: 90. gamma: 120. volume: 676.11(4) crystal system: hexagonal
x	intensity
5	0
5.22	18.7797
5.44	10.3852
5.66	6.11807
5.88	1.46642
6.1	11.7905
6.32	0.149761
6.54	3.49522
6.76	12.112
6.98	8.95645
7.2	1.45841
7.42	5.33615
7.64	3.47101
7.86	2.59594
8.08	4.27437
8.3	5.98247
8.52	2.64834
8.74	5.57663
8.96	14.7129
9.18	9.51236
9.4	4.72453
9.62	8.67562
9.84	0.61371
10.06	20.3701
10.28	5.25879
10.5	6.28548
10.72	27.8308
10.94	91.3268
11.16	431.658
11.38	25.9094
11.6	10.2976
11.82	13.3662
12.04	5.56178
12.26	9.29287
12.48	7.75224
12.7	0.34518
12.92	14.1163
13.14	13.7154
13.36	6.05498
13.58	3.46329
13.8	10.6596
14.02	7.20983
14.24	4.21373
14.46	4.48571
14.68	7.41678
14.9	1.67614
15.12	6.94437
15.34	13.0614
15.56	2.24558
15.78	6.51438
16	9.7393
16.22	3.66992
16.44	7.93339
16.66	3.08339
16.88	9.19149
17.1	7.95734
17.32	7.29275
17.54	4.89077
17.76	11.4871
17.98	9.10841
18.2	6.81193
18.42	1.36044
18.64	4.02157
18.86	0.157683
19.08	7.75521
19.3	294.82
19.52	13.5237
19.74	4.40754
19.96	2.67043
20.18	6.79192
20.4	5.74992
20.62	0.358348
20.84	11.4313
21.06	0.0646
21.28	1.60966
21.5	9.07659
21.72	2.56635
21.94	5.47733
22.16	16.2531
22.38	141.76
22.6	6.50438
22.82	10.3759
23.04	2.62006
23.26	1.19919
23.48	1.83738
23.7	6.94648
23.92	3.62208
24.14	2.20549
24.36	0.732849
24.58	7.60914
24.8	13.5542
25.02	3.43663
25.24	9.16798
25.46	1.57172
25.68	3.10742
25.9	0.057666
26.12	6.67889
26.34	1.69015
26.56	6.25043
26.78	6.67503
27	19.4033
27.22	29.4095
27.44	609.922
27.66	19.8858
27.88	2.07118
28.1	23.3211
28.32	6.08778
28.54	1.89023
28.76	9.10558
28.98	11.5182
29.2	9.64286
29.42	9.64423
29.64	365.302
29.86	12.8075
30.08	2.69403
30.3	6.96142
30.52	12.8266
30.74	4.90635
30.96	11.3549
31.18	550.591
31.4	38.9114
31.62	6.27192
31.84	1.82227
32.06	17.4969
32.28	6.11028
32.5	9.5933
32.72	14.0163
32.94	4.42098
33.16	9.44229
33.38	9.75298
33.6	2.43436
33.82	6.07679
34.04	1.88385
34.26	6.70569
34.48	1.32874
34.7	0.583171
34.92	10.7032
35.14	9.87457
35.36	17.9264
35.58	205.261
35.8	20.6843
36.02	7.51778
36.24	1.1771
36.46	4.11739
36.68	7.3283
36.9	8.62417
37.12	1.88547
37.34	7.97919
37.56	1.22565
37.78	8.10669
38	5.07546
38.22	3.86958
38.44	2.93763
38.66	2.19112
38.88	10.38
39.1	9.88706
39.32	7.06197
39.54	6.12155
39.76	4.1972
39.98	1.64453
40.2	6.4614
40.42	1.66267
40.64	14.642
40.86	45.6236
41.08	10.4326
41.3	11.3036
41.52	11.0468
41.74	5.87575
41.96	86.9933
42.18	14.0132
42.4	2.68023
42.62	13.7666
42.84	9.58132
43.06	2.84992
43.28	2.8412
43.5	15.8359
43.72	4.84931
43.94	82.7722
44.16	9.52512
44.38	1.42993
44.6	5.33845
44.82	1.75957
45.04	4.51896
45.26	7.83611
45.48	82.7465
45.7	17.6837
45.92	1.41865
46.14	7.47771
46.36	5.33733
46.58	4.38739
46.8	1.65842
47.02	5.62994
47.24	1.52444
47.46	10.4515
47.68	1.26194
47.9	6.2251
48.12	4.5028
48.34	9.19465
48.56	7.20532
48.78	1.15698
49	10.1471
49.22	4.17194
49.44	1.82092
49.66	5.78221
49.88	11.5133
50.1	6.34212
50.32	4.59505
50.54	0.388372
50.76	12.2941
50.98	41.5577
51.2	11.7537
51.42	10.7121
51.64	7.71639
51.86	3.73668
52.08	5.96236
52.3	10.0747
52.52	344.014
52.74	179.564
52.96	6.67917
53.18	7.41949
53.4	15.2552
53.62	16.2308
53.84	10.4358
54.06	5.74459
54.28	6.35211
54.5	1.50036
54.72	0.709825
54.94	8.0015
55.16	0.211178
55.38	11.1613
55.6	1.09808
55.82	1.85017
56.04	13.1854
56.26	8.39312
56.48	67.1133
56.7	45.4887
56.92	11.1235
57.14	4.84831
57.36	8.83565
57.58	3.73577
57.8	21.5778
58.02	4.58431
58.24	5.74848
58.46	5.64147
58.68	32.321
58.9	29.3768
59.12	1.57288
59.34	8.58861
59.56	2.5855
59.78	2.81095
60	3.73811
60.22	10.7584
60.44	8.8145
60.66	2.73474
60.88	2.55452
61.1	18.6206
61.32	40.6423
61.54	2.44082
61.76	0.750004
61.98	2.63898
62.2	6.11952
62.42	11.5401
62.64	4.70964
62.86	9.65511
63.08	6.5053
63.3	0.52642
63.52	0.508375
63.74	0.528287
63.96	55.4815
64.18	16.3023
64.4	3.34753
64.62	5.37884
64.84	4.2207
65.06	71.1963
65.28	63.2652
65.5	4.67811
65.72	7.42625
65.94	13.0965
66.16	2.20366
66.38	8.37339
66.6	4.54612
66.82	6.78542
67.04	1.04201
67.26	8.98876
67.48	0.083127
67.7	7.18289
67.92	4.32672
68.14	5.31317
68.36	1.9054
68.58	15.3197
68.8	22.3824
69.02	3.65562
69.24	3.26157
69.46	2.95114
69.68	12.1215
69.9	2.24525
70.12	5.54159
70.34	9.02333
70.56	7.32266
70.78	8.60714
71	2.34953
71.22	7.51751
71.44	6.41983
71.66	2.45468
71.88	8.35111
72.1	11.3222
72.32	4.3304
72.54	8.01471
72.76	4.54623
72.98	3.27323
73.2	6.77701
73.42	1.38252
73.64	1.01471
73.86	0.279964
74.08	10.4341
74.3	17.2768
74.52	13.0512
74.74	6.90014
74.96	13.3584
75.18	12.203
75.4	19.5067
75.62	3.91755
75.84	7.24114
76.06	2.74347
76.28	1.24608
76.5	6.54633
76.72	7.86834
76.94	3.22733
77.16	3.57361
77.38	4.31469
77.6	9.22382
77.82	5.16629
78.04	0.953634
78.26	6.88218
78.48	6.58931
78.7	7.3139
78.92	4.4608
79.14	4.38689
79.36	17.5128
79.58	21.3035
79.8	8.47628
80.02	1.74406
80.24	4.89651
80.46	6.01862
80.68	1.11878
80.9	3.27597
81.12	0.456344
81.34	6.52092
81.56	13.6248
81.78	6.48209
82	10.6554
82.22	2.56395
82.44	13.7372
82.66	0.019073
82.88	5.05818
83.1	3.11111
83.32	1.11707
83.54	8.0769
83.76	4.9874
83.98	10.0038
84.2	9.05989
84.42	14.9598
84.64	3.89803
84.86	4.62445
85.08	21.4381
85.3	4.52055
85.52	5.57665
85.74	2.78597
85.96	3.78547
86.18	1.77946
86.4	5.74417
86.62	8.68656
86.84	2.80297
87.06	4.83553
87.28	9.98267
87.5	11.9681
87.72	4.99846
87.94	0.938184
88.16	2.12728
88.38	5.26987
88.6	2.43124
88.82	4.66305
89.04	8.69019
89.26	3.87178
89.48	8.16605
89.7	5.11947
89.92	2.78661
