Measurement: Powder, Xray Data XY Processed
Mineral: Beryl
Rruff sample: R040002
Ideal chemistry: Be_3_Al_2_Si_6_O_18_
Locality: Usakos, Namibia
Source: University of Arizona Mineral Museum
Description: Light blue hexagonal prism, variety aquamarine
Diffraction sample description: Powder
Measured chemistry: (Be_0.97_Li_0.03_)_3_(Al_0.97_Fe^3+^_0.03_)_2_Si_6_O_18_Î‡Na_0.01_
Cell parameters: a: 9.2122(2) b: 9.2122(2) c: 9.1893(5) alpha: 90. beta: 90. gamma: 120. volume: 675.37(4) crystal system: hexagonal
x	intensity
5	0
5.22	13.675
5.44	9.987
5.66	1.312
5.88	4.749
6.1	11.204
6.32	16.707
6.54	0.685
6.76	1.226
6.98	13.871
7.2	2.983
7.42	6.799
7.64	8.771
7.86	1.273
8.08	3.783
8.3	8.972
8.52	6.602
8.74	10.707
8.96	1.563
9.18	3.892
9.4	10.231
9.62	6.828
9.84	15.475
10.06	67.808
10.28	10.087
10.5	1.164
10.72	36.949
10.94	87.793
11.16	2676.25
11.38	32.143
11.6	9.939
11.82	7.939
12.04	4.216
12.26	10.736
12.48	0.72
12.7	3.104
12.92	7.421
13.14	9.709
13.36	2.054
13.58	6.85
13.8	5.39
14.02	12.817
14.24	19.901
14.46	4.329
14.68	4.592
14.9	8.322
15.12	12.716
15.34	6.967
15.56	6.925
15.78	4.614
16	6.889
16.22	8.546
16.44	8.672
16.66	10.997
16.88	6.965
17.1	11.128
17.32	17.257
17.54	5.586
17.76	9.998
17.98	4.756
18.2	1.562
18.42	5.074
18.64	5.779
18.86	6.423
19.08	4.225
19.3	362.155
19.52	38.413
19.74	13.38
19.96	12.45
20.18	22.491
20.4	9.917
20.62	4.059
20.84	3.317
21.06	5.86
21.28	8.76
21.5	9.544
21.72	11.448
21.94	6.905
22.16	14.435
22.38	583.424
22.6	15.099
22.82	3.163
23.04	5.225
23.26	2.974
23.48	10.516
23.7	6.009
23.92	3.881
24.14	6.067
24.36	3.555
24.58	4.697
24.8	24.85
25.02	6.946
25.24	4.745
25.46	7.435
25.68	17.758
25.9	12.104
26.12	1.454
26.34	10.407
26.56	5.789
26.78	20.072
27	14.97
27.22	39.351
27.44	1993.2
27.66	54.485
27.88	15.013
28.1	11.422
28.32	8.72
28.54	1.791
28.76	3.187
28.98	1.035
29.2	21.799
29.42	10.501
29.64	322.109
29.86	30.09
30.08	0.18
30.3	11.936
30.52	3.275
30.74	9.851
30.96	20.812
31.18	564.392
31.4	77.451
31.62	28.331
31.84	9.2
32.06	5.706
32.28	9.651
32.5	9.669
32.72	11.693
32.94	10.459
33.16	11.134
33.38	0.027
33.6	0.104
33.82	20.51
34.04	3.023
34.26	4.747
34.48	13.026
34.7	15.802
34.92	8.656
35.14	11.563
35.36	9.908
35.58	171.126
35.8	25.834
36.02	6.324
36.24	12.544
36.46	5.863
36.68	0.606
36.9	6.708
37.12	2.288
37.34	0.41
37.56	2.802
37.78	8.165
38	7.136
38.22	4.159
38.44	9.32
38.66	13.628
38.88	1.795
39.1	17.539
39.32	57.565
39.54	8.129
39.76	3.914
39.98	9.524
40.2	4.159
40.42	8.511
40.64	5.271
40.86	57.637
41.08	3.051
41.3	11.108
41.52	2.155
41.74	6.975
41.96	102.251
42.18	29.285
42.4	8.617
42.62	8.889
42.84	1.608
43.06	0.288
43.28	4.837
43.5	7.359
43.72	5.026
43.94	11.869
44.16	46.974
44.38	10.505
44.6	2.399
44.82	10.966
45.04	3.61
45.26	8.565
45.48	133.628
45.7	91.721
45.92	4.351
46.14	8.453
46.36	1.927
46.58	9.486
46.8	5.048
47.02	5.394
47.24	16.737
47.46	5.454
47.68	7.866
47.9	6.956
48.12	5.994
48.34	15.397
48.56	6.41
48.78	6.864
49	6.429
49.22	13.411
49.44	13.241
49.66	9.979
49.88	23.381
50.1	1.163
50.32	4.22
50.54	11.027
50.76	10.82
50.98	56.208
51.2	11.04
51.42	2.612
51.64	2.095
51.86	14.758
52.08	7.772
52.3	10.51
52.52	139.225
52.74	89.38
52.96	13.282
53.18	11.742
53.4	8.192
53.62	31.576
53.84	12.906
54.06	24.462
54.28	1.266
54.5	8.594
54.72	3.398
54.94	7.003
55.16	2.318
55.38	6.302
55.6	0.361
55.82	3.616
56.04	8.325
56.26	0.129
56.48	49.667
56.7	91.813
56.92	3.401
57.14	5.329
57.36	7.904
57.58	8.755
57.8	41.793
58.02	26.177
58.24	11.352
58.46	10.752
58.68	31.705
58.9	70.276
59.12	8.435
59.34	0.525
59.56	8.93
59.78	7.018
60	0.848
60.22	6.616
60.44	89.155
60.66	19.838
60.88	7.823
61.1	22.78
61.32	45.968
61.54	26.475
61.76	9.852
61.98	5.318
62.2	9.767
62.42	14.39
62.64	5.722
62.86	6.931
63.08	6.011
63.3	3.185
63.52	3.096
63.74	10.915
63.96	45.409
64.18	14.136
64.4	12.733
64.62	8.144
64.84	10.136
65.06	112.322
65.28	68.027
65.5	5.126
65.72	8.337
65.94	8.098
66.16	11.307
66.38	2.45
66.6	13.943
66.82	8.123
67.04	2.085
67.26	7.978
67.48	2.728
67.7	4.03
67.92	2.271
68.14	6.142
68.36	13.06
68.58	42.908
68.8	26.192
69.02	8.404
69.24	4.491
69.46	4.798
69.68	3.007
69.9	7.306
70.12	4.538
70.34	6.458
70.56	1.915
70.78	14.071
71	18.465
71.22	14.47
71.44	5.674
71.66	8.682
71.88	13.431
72.1	0.775
72.32	2.356
72.54	5.391
72.76	11.836
72.98	4.941
73.2	7.298
73.42	1.643
73.64	12.397
73.86	7.236
74.08	10.579
74.3	23.197
74.52	19.975
74.74	8.167
74.96	41.573
75.18	39.409
75.4	44.222
75.62	10.127
75.84	0.436
76.06	4.308
76.28	6.099
76.5	2.97
76.72	5.815
76.94	3.821
77.16	5.148
77.38	5.968
77.6	14.208
77.82	6.961
78.04	4.701
78.26	2.763
78.48	8.42
78.7	12.131
78.92	9.711
79.14	8.455
79.36	30.555
79.58	72.006
79.8	28.43
80.02	0.011
80.24	2.419
80.46	9.426
80.68	13.075
80.9	6.541
81.12	4.838
81.34	7.633
81.56	15.928
81.78	9.967
82	11.798
82.22	2.585
82.44	1.561
82.66	6.528
82.88	9.288
83.1	1.801
83.32	0.444
83.54	8.084
83.76	8.812
83.98	13.43
84.2	32.25
84.42	7.263
84.64	4.182
84.86	1.06
85.08	22.038
85.3	9.566
85.52	8.026
85.74	4.614
85.96	6.91
86.18	5.785
86.4	6.123
86.62	0.404
86.84	8.009
87.06	12.24
87.28	35.412
87.5	24.401
87.72	5.247
87.94	1.944
88.16	6.031
88.38	5.275
88.6	5.585
88.82	4.597
89.04	9.275
89.26	3.535
89.48	7.776
89.7	7.261
89.92	1.763
