Measurement: Powder, Xray Data XY Processed
Mineral: Bilinite
Rruff sample: R070187
Ideal chemistry: Fe^2+^Fe^3+^_2_(S^6+^O_4_)_4_22H_2_O
Locality: Runge mine, near Edgemont, Fall River County, South Dakota, USA
Source: James Shigley
Description: Colorless needles within pale green powdery efflorescence of pickeringite
Diffraction sample description: Powder
Cell parameters: a: 6.189(1) b: 24.273(2) c: 21.256(3) alpha: 90 beta: 100.28(2) gamma: 90 volume: 3141.9(8) crystal system: monoclinic
x	intensity
5	0
5.22	25.3969
5.44	46.8435
5.66	19.5541
5.88	8.03873
6.1	9.78696
6.32	10.2319
6.54	165.433
6.76	25.7519
6.98	8.07504
7.2	8.72157
7.42	1.13197
7.64	9.09017
7.86	5.41517
8.08	4.7412
8.3	31.8621
8.52	3.42548
8.74	12.6089
8.96	32.1631
9.18	77.214
9.4	15.5707
9.62	45.4402
9.84	145.316
10.06	13.3185
10.28	3.33399
10.5	15.9572
10.72	14.0656
10.94	14.0595
11.16	53.996
11.38	30.7281
11.6	8.5609
11.82	19.1277
12.04	22.8408
12.26	21.6907
12.48	21.3167
12.7	21.1013
12.92	36.8689
13.14	41.9902
13.36	5.68742
13.58	7.37485
13.8	11.1074
14.02	29.2524
14.24	30.5939
14.46	34.6799
14.68	84.1544
14.9	1.7009
15.12	25.2244
15.34	10.1726
15.56	29.3368
15.78	22.5865
16	48.7433
16.22	1.94714
16.44	12.4837
16.66	10.3264
16.88	27.5771
17.1	5.88014
17.32	6.74336
17.54	24.7448
17.76	1.06061
17.98	15.5261
18.2	48.5837
18.42	112.048
18.64	3.90272
18.86	65.1904
19.08	17.5762
19.3	50.1903
19.52	33.0744
19.74	4.39131
19.96	7.53419
20.18	22.1629
20.4	12.142
20.62	85.9248
20.84	17.6998
21.06	9.7507
21.28	39.6778
21.5	22.9922
21.72	1.84193
21.94	19.0534
22.16	32.3464
22.38	13.9364
22.6	19.3227
22.82	6.59049
23.04	4.86475
23.26	11.4992
23.48	28.4138
23.7	5.7203
23.92	23.259
24.14	6.27859
24.36	7.59221
24.58	53.739
24.8	11.6282
25.02	24.1043
25.24	47.5383
25.46	155.249
25.68	15.6881
25.9	25.5846
26.12	14.0909
26.34	19.8245
26.56	16.5976
26.78	26.7631
27	18.5023
27.22	16.2876
27.44	13.1262
27.66	7.76067
27.88	6.61828
28.1	31.8989
28.32	14.626
28.54	16.6033
28.76	14.6723
28.98	19.8462
29.2	10.9337
29.42	28.867
29.64	17.5037
29.86	31.5472
30.08	43.9384
30.3	7.80009
30.52	9.02537
30.74	4.12363
30.96	47.3766
31.18	28.3298
31.4	17.5416
31.62	38.1028
31.84	17.9108
32.06	9.45882
32.28	3.07202
32.5	34.2173
32.72	3.82496
32.94	41.461
33.16	9.72421
33.38	61.3809
33.6	0.151031
33.82	7.2485
34.04	19.1327
34.26	29.0198
34.48	26.6044
34.7	15.7935
34.92	27.6102
35.14	20.2811
35.36	1.36443
35.58	15.9792
35.8	27.3022
36.02	21.1106
36.24	7.96104
36.46	32.8082
36.68	34.0034
36.9	23.1299
37.12	6.75008
37.34	8.927
37.56	21.9685
37.78	7.89067
38	12.3264
38.22	2.37749
38.44	17.0056
38.66	22.4515
38.88	10.1037
39.1	32.0633
39.32	40.4719
39.54	26.8849
39.76	46.4393
39.98	29.0698
40.2	31.2535
40.42	20.4456
40.64	19.7178
40.86	8.75395
41.08	9.31026
41.3	7.89335
41.52	11.7912
41.74	24.4273
41.96	8.85436
42.18	29.4692
42.4	27.7783
42.62	22.8731
42.84	11.6006
43.06	30.6112
43.28	14.9237
43.5	19.6853
43.72	11.4794
43.94	30.0302
44.16	36.9202
44.38	26.9534
44.6	14.2027
44.82	14.2389
45.04	17.8304
45.26	27.2631
45.48	20.6101
45.7	13.1124
45.92	16.9365
46.14	4.07848
46.36	42.2623
46.58	29.2713
46.8	12.4409
47.02	10.1178
47.24	14.0137
47.46	13.3916
47.68	31.1882
47.9	19.0834
48.12	15.1442
48.34	19.5295
48.56	32.702
48.78	9.91293
49	1.04962
49.22	2.88117
49.44	15.0989
49.66	24.4242
49.88	14.4491
50.1	1.25746
50.32	17.9138
50.54	27.8113
50.76	5.75233
50.98	9.02796
51.2	14.3243
51.42	26.7163
51.64	29.046
51.86	14.4765
52.08	1.65414
52.3	1.0763
52.52	11.6163
52.74	37.4793
52.96	8.33439
53.18	37.0699
53.4	19.3827
53.62	16.3683
53.84	9.17341
54.06	4.40597
54.28	29.5602
54.5	15.6164
54.72	7.78042
54.94	24.778
55.16	13.3245
55.38	14.2231
55.6	17.6567
55.82	28.0045
56.04	14.2215
56.26	9.83028
56.48	17.6631
56.7	21.7732
56.92	31.8203
57.14	18.6621
57.36	36.777
57.58	25.9877
57.8	13.2145
58.02	14.8317
58.24	6.35632
58.46	14.0145
58.68	16.122
58.9	1.79414
59.12	20.8669
59.34	11.0546
59.56	32.0948
59.78	12.8187
60	4.84184
60.22	21.5356
60.44	26.6093
60.66	1.63301
60.88	12.9927
61.1	10.947
61.32	7.93033
61.54	7.14947
61.76	21.3856
61.98	23.0482
62.2	5.02685
62.42	22.9754
62.64	20.9597
62.86	5.47763
63.08	23.5157
63.3	6.26289
63.52	7.74445
63.74	3.06668
63.96	7.5797
64.18	15.0122
64.4	25.1845
64.62	20.5326
64.84	19.3397
65.06	24.7932
65.28	17.6921
65.5	9.96445
65.72	15.0911
65.94	2.04632
66.16	9.79584
66.38	11.7248
66.6	15.7218
66.82	15.8483
67.04	23.2621
67.26	13.6597
67.48	11.6729
67.7	13.8677
67.92	22.5238
68.14	12.9194
68.36	15.0184
68.58	12.0272
68.8	12.5799
69.02	8.48718
69.24	0.315884
69.46	29.3246
69.68	20.6842
69.9	44.7575
70.12	8.56116
70.34	16.278
70.56	9.2481
70.78	16.0735
71	8.42651
71.22	25.3383
71.44	4.60624
71.66	18.0585
71.88	1.71875
72.1	18.2615
72.32	14.2023
72.54	25.9305
72.76	16.0366
72.98	25.1312
73.2	2.12481
73.42	1.49645
73.64	12.995
73.86	9.81726
74.08	6.19104
74.3	1.05452
74.52	10.3173
74.74	19.3709
74.96	13.5543
75.18	26.4813
75.4	13.5503
75.62	4.03879
75.84	21.5752
76.06	2.67765
76.28	25.3106
76.5	5.36728
76.72	14.456
76.94	19.9758
77.16	13.2468
77.38	7.86652
77.6	16.6865
77.82	30.211
78.04	20.5232
78.26	17.8808
78.48	33.1582
78.7	30.4901
78.92	4.49464
79.14	14.7073
79.36	18.8368
79.58	20.4174
79.8	17.5327
80.02	14.1293
80.24	13.862
80.46	14.9217
80.68	18.1555
80.9	37.908
81.12	11.8401
81.34	13.1569
81.56	7.08547
81.78	11.1152
82	11.5119
82.22	15.2383
82.44	16.9902
82.66	15.1821
82.88	22.3353
83.1	23.2229
83.32	0.417542
83.54	20.1122
83.76	0.384338
83.98	7.04756
84.2	5.99233
84.42	21.116
84.64	3.8855
84.86	7.48672
85.08	2.06442
85.3	5.56553
85.52	10.5898
85.74	14.3663
85.96	16.6594
86.18	28.7995
86.4	7.5175
86.62	20.9149
86.84	19.0102
87.06	15.2528
87.28	1.71138
87.5	6.23444
87.72	19.926
87.94	9.55004
88.16	15.6357
88.38	0.235256
88.6	3.07622
88.82	11.6466
89.04	14.7163
89.26	20.4138
89.48	4.84594
89.7	17.9798
89.92	1.737
