Measurement: Powder, Xray Data XY Processed
Mineral: Bindheimite
Rruff sample: R050546
Ideal chemistry: Pb^2+^_2_Sb^5+^_2_O_7_
Locality: Arabia District, Pershing County, Nevada, USA
Source: University of Arizona Mineral Museum
Description: Yellow-brown coarsely fibrous massive, intimately mixed with mimetite
Diffraction sample description: Powder
Measured chemistry: (Pb_1.33_Fe_0.47_Ca_0.20_)_Σ=2_(Sb^5+^_1.97_As^5+^_0.03_)_Σ=2_O_7_  ;(darker phase, with trace amounts of Na);   (Pb_4.07_Ca_0.92_Fe_0.01_)_Σ=5_((As_2.97_Sb_0.03_)_Σ=1_O_4_)_3_Cl_1.00_ (lighter phase = mimetite)
Cell parameters: a: 10.4424(8) b: 10.4424(8) c: 10.4424(8) alpha: 90 beta: 90 gamma: 90 volume: 1138.7(3) crystal system: cubic
x	intensity
5	0
5.22	6.9134
5.44	8.6808
5.66	13.2382
5.88	7.98384
6.1	12.723
6.32	7.72382
6.54	13.5622
6.76	11.6037
6.98	8.19041
7.2	7.25254
7.42	5.09436
7.64	9.73839
7.86	5.38756
8.08	2.30493
8.3	3.87565
8.52	7.52527
8.74	3.78502
8.96	1.27043
9.18	3.33816
9.4	5.61402
9.62	6.59271
9.84	7.73476
10.06	4.93232
10.28	7.04027
10.5	10.9237
10.72	0.176309
10.94	4.32052
11.16	12.493
11.38	2.55629
11.6	3.57785
11.82	1.38842
12.04	3.89097
12.26	1.9491
12.48	5.95902
12.7	4.00787
12.92	1.01521
13.14	9.94498
13.36	6.83575
13.58	7.77635
13.8	2.77582
14.02	3.04378
14.24	0.810621
14.46	1.10072
14.68	1.22872
14.9	6.31949
15.12	0.503529
15.34	5.65452
15.56	5.7644
15.78	4.92349
16	2.93893
16.22	3.91409
16.44	4.67723
16.66	3.60188
16.88	4.48823
17.1	2.52998
17.32	3.66568
17.54	4.48056
17.76	6.35723
17.98	5.10926
18.2	2.09441
18.42	0.114859
18.64	5.05066
18.86	2.99751
19.08	0.936789
19.3	3.12309
19.52	2.96618
19.74	1.79779
19.96	3.80491
20.18	4.88542
20.4	5.89547
20.62	1.84402
20.84	3.99366
21.06	9.09269
21.28	12.105
21.5	2.11211
21.72	5.0487
21.94	2.29287
22.16	1.19428
22.38	4.14455
22.6	8.91149
22.82	4.80776
23.04	5.62105
23.26	0.254054
23.48	6.00867
23.7	0.010696
23.92	5.8485
24.14	3.59774
24.36	5.40407
24.58	3.35414
24.8	4.15791
25.02	3.03119
25.24	6.91584
25.46	0.982035
25.68	3.79656
25.9	3.58238
26.12	6.56206
26.34	6.1731
26.56	6.70566
26.78	17.2369
27	6.82122
27.22	6.5595
27.44	8.90718
27.66	8.05405
27.88	2.9169
28.1	4.07684
28.32	7.19799
28.54	14.9456
28.76	3.09588
28.98	2.4425
29.2	9.91424
29.42	48.5879
29.64	35.2152
29.86	26.4741
30.08	15.314
30.3	8.94302
30.52	0.889901
30.74	0.923447
30.96	1.93998
31.18	0.80426
31.4	3.89744
31.62	4.84818
31.84	5.41873
32.06	1.03923
32.28	2.27778
32.5	3.09921
32.72	8.06281
32.94	5.61536
33.16	3.46362
33.38	9.15608
33.6	10.9651
33.82	14.3619
34.04	9.30423
34.26	3.18761
34.48	17.177
34.7	5.37165
34.92	2.83215
35.14	13.2392
35.36	0.610452
35.58	1.12858
35.8	0.437875
36.02	8.07695
36.24	5.4745
36.46	6.72374
36.68	4.0231
36.9	3.3977
37.12	4.30917
37.34	0.493221
37.56	3.52113
37.78	3.70486
38	4.87878
38.22	9.95678
38.44	1.78138
38.66	4.43184
38.88	3.49888
39.1	4.59853
39.32	5.64553
39.54	5.66953
39.76	2.49336
39.98	3.53927
40.2	0.511596
40.42	6.2644
40.64	1.18288
40.86	2.00259
41.08	3.88487
41.3	4.86792
41.52	0.662817
41.74	0.606197
41.96	2.61694
42.18	1.37438
42.4	1.50608
42.62	4.63585
42.84	7.79952
43.06	9.02373
43.28	4.99762
43.5	3.89408
43.72	7.85937
43.94	2.9248
44.16	2.88651
44.38	4.79708
44.6	5.62084
44.82	7.74348
45.04	6.71645
45.26	0.515011
45.48	4.08148
45.7	0.107888
45.92	8.98615
46.14	3.0915
46.36	3.61763
46.58	0.343379
46.8	3.29251
47.02	6.04303
47.24	6.41572
47.46	1.73583
47.68	6.1607
47.9	9.68641
48.12	4.01074
48.34	6.49847
48.56	4.84809
48.78	5.64227
49	15.6496
49.22	10.2536
49.44	17.3132
49.66	14.4415
49.88	9.71515
50.1	10.1747
50.32	12.6031
50.54	0.83361
50.76	3.00644
50.98	8.75929
51.2	4.86687
51.42	9.62587
51.64	9.05296
51.86	6.25032
52.08	3.69023
52.3	6.89779
52.52	9.93973
52.74	6.13027
52.96	1.12158
53.18	6.76017
53.4	4.72002
53.62	4.74141
53.84	5.40348
54.06	7.38878
54.28	4.41686
54.5	6.136
54.72	1.15583
54.94	6.14001
55.16	4.19328
55.38	6.17969
55.6	6.9117
55.82	0.737597
56.04	3.13841
56.26	5.90095
56.48	9.48327
56.7	5.12971
56.92	3.71876
57.14	0.160884
57.36	0.541344
57.58	3.93272
57.8	11.4145
58.02	5.93988
58.24	12.2932
58.46	6.30696
58.68	10.4836
58.9	11.5504
59.12	7.94417
59.34	7.35342
59.56	12.7624
59.78	8.47375
60	6.8759
60.22	4.3171
60.44	1.68768
60.66	10.0615
60.88	7.12857
61.1	8.36711
61.32	0.612201
61.54	10.6472
61.76	1.87348
61.98	4.20002
62.2	5.15347
62.42	11.3963
62.64	4.60151
62.86	7.84734
63.08	7.06789
63.3	4.08673
63.52	1.28455
63.74	5.59434
63.96	0.868657
64.18	5.79394
64.4	2.81889
64.62	4.81555
64.84	4.81806
65.06	8.78554
65.28	4.89491
65.5	6.86589
65.72	4.78981
65.94	4.76904
66.16	0.828606
66.38	3.61139
66.6	5.63166
66.82	4.64305
67.04	3.81363
67.26	0.03292
67.48	2.10898
67.7	7.04727
67.92	11.1224
68.14	5.1503
68.36	4.10865
68.58	1.87732
68.8	3.78249
69.02	1.67475
69.24	11.6256
69.46	3.4495
69.68	5.27581
69.9	6.19909
70.12	4.88457
70.34	2.83164
70.56	0.811238
70.78	0.247522
71	0.800334
71.22	5.78474
71.44	0.986746
71.66	6.78494
71.88	3.80617
72.1	2.75776
72.32	6.94832
72.54	6.03566
72.76	4.10842
72.98	1.12027
73.2	9.28445
73.42	1.44034
73.64	3.4489
73.86	7.39462
74.08	2.37912
74.3	2.45411
74.52	4.38427
74.74	3.36525
74.96	3.4087
75.18	4.59822
75.4	2.61033
75.62	1.3819
75.84	3.29162
76.06	3.36735
76.28	0.669768
76.5	7.70309
76.72	5.59789
76.94	5.64451
77.16	6.57141
77.38	6.3469
77.6	6.31634
77.82	3.16911
78.04	5.98089
78.26	2.74416
78.48	6.45038
78.7	7.98777
78.92	3.66408
79.14	4.40139
79.36	6.12045
79.58	2.93147
79.8	1.7584
80.02	10.4169
80.24	6.41959
80.46	6.40771
80.68	3.02663
80.9	5.16875
81.12	10.1293
81.34	0.754745
81.56	12.3382
81.78	7.42322
82	4.49207
82.22	6.55345
82.44	8.76355
82.66	3.82013
82.88	5.09611
83.1	6.91515
83.32	5.91029
83.54	5.37719
83.76	5.5123
83.98	8.88871
84.2	7.28075
84.42	4.48637
84.64	3.65804
84.86	6.58351
85.08	5.69694
85.3	7.65734
85.52	0.624616
85.74	3.64841
85.96	4.59888
86.18	1.74636
86.4	1.49423
86.62	5.38931
86.84	2.39911
87.06	2.5182
87.28	4.64468
87.5	1.68325
87.72	6.70631
87.94	0.260132
88.16	2.82034
88.38	7.88752
88.6	5.75483
88.82	3.83076
89.04	9.01153
89.26	0.005319
89.48	3.11202
89.7	3.63993
89.92	5.94635
