Measurement: Powder, Xray Data XY Processed
Mineral: Bisbeeite
Rruff sample: R060317
Ideal chemistry: (Cu,Mg)SiO_3_nH_2_O
Locality: Shangulowe, Katanga Province, Democratic Republic of Congo
Source: Herb Obodda
Description: Light blue granular massive
Diffraction sample description: Powder
Measured chemistry: (Cu_0.99_Mg_0.01_)_Σ=1_Si_1.00_O_3_·0.40H_2_O
x	intensity
5	0
5.22	15.809
5.44	23.506
5.66	21.322
5.88	17.156
6.1	12.413
6.32	10.389
6.54	23.724
6.76	18.601
6.98	11.369
7.2	1.521
7.42	17.295
7.64	21.197
7.86	15.731
8.08	24.128
8.3	71.822
8.52	162.281
8.74	278.422
8.96	82.404
9.18	46.051
9.4	7.073
9.62	9.605
9.84	11.705
10.06	4.582
10.28	12.936
10.5	15.826
10.72	13.513
10.94	2.081
11.16	29.059
11.38	12.457
11.6	6.067
11.82	5.927
12.04	23.062
12.26	13.049
12.48	43.431
12.7	59.68
12.92	56.297
13.14	2.76
13.36	10.312
13.58	7.996
13.8	12.27
14.02	1.907
14.24	1.582
14.46	10.679
14.68	10.755
14.9	6.055
15.12	6.726
15.34	4.104
15.56	14.531
15.78	13.541
16	19.591
16.22	16.364
16.44	16.381
16.66	13.332
16.88	18.166
17.1	19.751
17.32	0.059
17.54	13.921
17.76	30.411
17.98	35.082
18.2	67.317
18.42	53.409
18.64	22.234
18.86	33.191
19.08	19.69
19.3	15.395
19.52	22.985
19.74	12.279
19.96	6.852
20.18	2.776
20.4	32.169
20.62	6.464
20.84	8.604
21.06	26.791
21.28	8.966
21.5	16.233
21.72	2.333
21.94	58.868
22.16	34.688
22.38	41.462
22.6	51.062
22.82	23.247
23.04	17.224
23.26	7.615
23.48	2.553
23.7	9.871
23.92	18.761
24.14	10.338
24.36	0.143
24.58	8.661
24.8	7.469
25.02	41.019
25.24	16.135
25.46	6.575
25.68	12.983
25.9	9.744
26.12	26.173
26.34	18.998
26.56	36.008
26.78	46.965
27	65.773
27.22	19.128
27.44	0.539
27.66	5.201
27.88	3.844
28.1	38.852
28.32	39.9
28.54	16.7
28.76	3.786
28.98	2.389
29.2	23.262
29.42	25.548
29.64	24.344
29.86	13.236
30.08	25.073
30.3	18.152
30.52	31.451
30.74	15.626
30.96	6.873
31.18	11.293
31.4	19.064
31.62	10.624
31.84	2.834
32.06	22.464
32.28	5.621
32.5	1.477
32.72	18.731
32.94	27.795
33.16	29.024
33.38	7.215
33.6	16.511
33.82	24.289
34.04	4.243
34.26	37.907
34.48	19.628
34.7	18.267
34.92	32.342
35.14	10.64
35.36	1.522
35.58	12.554
35.8	5.691
36.02	17.806
36.24	10.225
36.46	14.302
36.68	16.606
36.9	6.689
37.12	24.747
37.34	18.269
37.56	21.34
37.78	44.352
38	27.847
38.22	29.362
38.44	26.664
38.66	19.815
38.88	24.426
39.1	17.005
39.32	22.641
39.54	29.149
39.76	24.647
39.98	21.894
40.2	28.473
40.42	8.4
40.64	3.044
40.86	10.676
41.08	10.311
41.3	6.669
41.52	11.415
41.74	20.985
41.96	7.039
42.18	31.988
42.4	18.279
42.62	9.171
42.84	22.388
43.06	23.004
43.28	1.426
43.5	14.744
43.72	5.281
43.94	18.923
44.16	24.286
44.38	1.567
44.6	10.91
44.82	20.707
45.04	4.061
45.26	6.574
45.48	0.905
45.7	4.249
45.92	10.222
46.14	2.007
46.36	18.786
46.58	23.514
46.8	20.345
47.02	19.839
47.24	7.175
47.46	19.466
47.68	19.369
47.9	2.168
48.12	16.776
48.34	19.482
48.56	19.278
48.78	23.122
49	15.244
49.22	11.953
49.44	6.711
49.66	4.257
49.88	7.694
50.1	16.208
50.32	15.576
50.54	16.575
50.76	3.57
50.98	4.711
51.2	5.014
51.42	15.772
51.64	13.186
51.86	12.403
52.08	0.933
52.3	5.159
52.52	8.402
52.74	26.981
52.96	7.538
53.18	11.327
53.4	6.239
53.62	6.533
53.84	19.926
54.06	14.065
54.28	14.289
54.5	15.548
54.72	1.307
54.94	15.419
55.16	12.564
55.38	10.558
55.6	2.096
55.82	14.302
56.04	10.488
56.26	26.824
56.48	8.863
56.7	26.104
56.92	11.161
57.14	20.111
57.36	21.844
57.58	10.858
57.8	22.634
58.02	22.381
58.24	19.963
58.46	21.049
58.68	20.466
58.9	21.113
59.12	23.228
59.34	1.91
59.56	20.155
59.78	0.342
60	9.957
60.22	2.745
60.44	18.436
60.66	25.435
60.88	17.967
61.1	4.427
61.32	17.153
61.54	26.291
61.76	1.636
61.98	15.4
62.2	8.358
62.42	5.95
62.64	16.337
62.86	10.615
63.08	13.702
63.3	8.219
63.52	14.9
63.74	9.808
63.96	29.169
64.18	12.072
64.4	4.133
64.62	10.397
64.84	5.428
65.06	15.888
65.28	14.297
65.5	24.551
65.72	9.953
65.94	5.821
66.16	26.876
66.38	31.891
66.6	12.77
66.82	7.81
67.04	20.661
67.26	11.648
67.48	18.518
67.7	34.677
67.92	4.533
68.14	20.439
68.36	4.915
68.58	4.756
68.8	2.157
69.02	24.52
69.24	10.069
69.46	12.897
69.68	17.556
69.9	2.893
70.12	6.444
70.34	22.494
70.56	16.809
70.78	18.413
71	9.331
71.22	13.736
71.44	26.188
71.66	8.843
71.88	15.391
72.1	22.638
72.32	6.265
72.54	21.941
72.76	7.624
72.98	17.121
73.2	8.906
73.42	13.603
73.64	18.72
73.86	8.891
74.08	12.11
74.3	1.533
74.52	1.411
74.74	21.06
74.96	6.846
75.18	15.424
75.4	17.64
75.62	2.904
75.84	1.998
76.06	19.566
76.28	5.735
76.5	0.047
76.72	14.121
76.94	8.668
77.16	5.906
77.38	8.176
77.6	1.455
77.82	9.913
78.04	3.116
78.26	19.246
78.48	7.826
78.7	14.917
78.92	24.731
79.14	27.463
79.36	4.97
79.58	14.932
79.8	18.005
80.02	16.242
80.24	23.456
80.46	28.532
80.68	6.66
80.9	9.696
81.12	17.264
81.34	9.143
81.56	6.29
81.78	15.996
82	4.001
82.22	7.86
82.44	11.226
82.66	9.583
82.88	4.194
83.1	9.291
83.32	16.792
83.54	8.397
83.76	5.655
83.98	17.858
84.2	15.286
84.42	0.713
84.64	22.354
84.86	14.303
85.08	22.581
85.3	24.756
85.52	0.068
85.74	9.709
85.96	15.221
86.18	12.208
86.4	19.17
86.62	9.095
86.84	5.043
87.06	14.231
87.28	17.096
87.5	23.047
87.72	18.975
87.94	18.48
88.16	12.707
88.38	12.334
88.6	20.272
88.82	20.278
89.04	1.366
89.26	4.486
89.48	19.109
89.7	3.663
89.92	14.882
