Measurement: Powder, Xray Data XY Processed
Mineral: Bismuth
Rruff sample: R070375
Ideal chemistry: Bi
Locality: Frontier mine, South Lorrain, Timiskaming District, Ontario, Canada
Source: Royal Ontario Museum
Description: Silver-white tarnished to grey cleavage fragments
Diffraction sample description: Powder
Cell parameters: a: 4.74626(8) b: 4.74626(8) c: 4.74626(8) alpha: 57.240(1) beta: 57.240(1) gamma: 57.240(1) volume: 70.798(2) crystal system: rhombohedral
x	intensity
5	0
5.22	2.73133
5.44	0.449401
5.66	11.9988
5.88	12.9198
6.1	18.604
6.32	16.4088
6.54	6.85123
6.76	12.2182
6.98	2.56541
7.2	2.0776
7.42	8.25823
7.64	14.365
7.86	10.1749
8.08	3.21052
8.3	6.14974
8.52	8.99335
8.74	12.8747
8.96	6.87842
9.18	2.97767
9.4	10.1366
9.62	10.2304
9.84	7.39384
10.06	8.74987
10.28	8.05561
10.5	18.237
10.72	5.41322
10.94	3.57428
11.16	13.1197
11.38	7.17413
11.6	4.28469
11.82	8.31954
12.04	0.529596
12.26	5.56177
12.48	5.40525
12.7	7.41936
12.92	11.254
13.14	10.0513
13.36	5.08588
13.58	3.80613
13.8	1.84702
14.02	8.95635
14.24	5.08703
14.46	8.90782
14.68	5.11752
14.9	9.43275
15.12	5.50784
15.34	8.58107
15.56	6.97207
15.78	0.766883
16	2.78207
16.22	1.21286
16.44	3.63417
16.66	6.46786
16.88	1.50218
17.1	4.31695
17.32	5.31314
17.54	8.32534
17.76	10.5334
17.98	7.30224
18.2	10.3256
18.42	6.31597
18.64	13.2839
18.86	2.26425
19.08	8.21745
19.3	7.08125
19.52	4.10916
19.74	7.87448
19.96	8.15592
20.18	9.98347
20.4	2.99334
20.62	8.9373
20.84	10.1778
21.06	1.26747
21.28	1.33275
21.5	12.3535
21.72	7.84113
21.94	2.6788
22.16	7.91661
22.38	14.5957
22.6	5.33024
22.82	3.29239
23.04	10.5366
23.26	4.21509
23.48	2.05985
23.7	4.97104
23.92	5.04741
24.14	7.5577
24.36	8.39933
24.58	18.5794
24.8	12.8154
25.02	0.808092
25.24	5.74759
25.46	2.37937
25.68	11.0856
25.9	4.71169
26.12	1.73583
26.34	2.67322
26.56	11.1929
26.78	10.4783
27	30.9612
27.22	679.512
27.44	25.1102
27.66	8.35862
27.88	4.27876
28.1	15.7348
28.32	2.57036
28.54	5.75873
28.76	10.367
28.98	7.83547
29.2	6.25445
29.42	5.53318
29.64	1.73443
29.86	9.96867
30.08	1.07256
30.3	6.33443
30.52	9.53583
30.74	11.3117
30.96	9.4397
31.18	3.5256
31.4	8.67621
31.62	4.74849
31.84	4.80138
32.06	1.99856
32.28	1.00738
32.5	6.84636
32.72	4.08185
32.94	9.9196
33.16	12.9306
33.38	7.92173
33.6	8.62181
33.82	4.91937
34.04	7.02879
34.26	11.0803
34.48	11.0464
34.7	8.16784
34.92	7.563
35.14	6.27929
35.36	1.63734
35.58	4.66819
35.8	4.25727
36.02	3.9886
36.24	9.83067
36.46	7.65369
36.68	8.2969
36.9	9.72842
37.12	4.20143
37.34	10.3686
37.56	9.77648
37.78	10.1142
38	271.807
38.22	26.8458
38.44	9.24893
38.66	4.9238
38.88	5.35319
39.1	12.6259
39.32	7.88583
39.54	54.1193
39.76	231.505
39.98	13.1227
40.2	3.10788
40.42	8.06444
40.64	5.57345
40.86	2.01818
41.08	0.510396
41.3	8.92911
41.52	1.10143
41.74	11.1462
41.96	4.54658
42.18	3.19344
42.4	6.35981
42.62	8.35145
42.84	4.31534
43.06	5.35031
43.28	4.18063
43.5	14.8214
43.72	0.989599
43.94	5.90874
44.16	6.69801
44.38	7.42464
44.6	40.2618
44.82	2.04729
45.04	7.0004
45.26	3.79502
45.48	3.89102
45.7	6.29532
45.92	48.4004
46.14	29.1677
46.36	9.47163
46.58	3.72911
46.8	7.6816
47.02	6.26237
47.24	8.3226
47.46	3.38785
47.68	1.41062
47.9	0.232552
48.12	4.08247
48.34	8.03316
48.56	21.044
48.78	86.7029
49	14.901
49.22	1.98535
49.44	0.802862
49.66	5.00022
49.88	6.20581
50.1	6.61608
50.32	5.27434
50.54	5.51455
50.76	7.67668
50.98	8.84833
51.2	1.95482
51.42	6.88134
51.64	7.03393
51.86	13.0685
52.08	3.16432
52.3	7.21164
52.52	2.95106
52.74	11.5693
52.96	1.77368
53.18	4.10926
53.4	1.10403
53.62	5.0796
53.84	12.9305
54.06	5.59813
54.28	16.1519
54.5	14.0708
54.72	1.298
54.94	5.4625
55.16	4.07094
55.38	7.89723
55.6	4.7053
55.82	11.4159
56.04	109.605
56.26	22.467
56.48	10.5994
56.7	4.5218
56.92	4.73393
57.14	11.0524
57.36	2.1043
57.58	0.714876
57.8	6.57272
58.02	7.69539
58.24	9.63272
58.46	5.17589
58.68	10.3815
58.9	7.38255
59.12	10.6029
59.34	63.2456
59.56	17.9543
59.78	7.10808
60	4.87538
60.22	4.53658
60.44	10.386
60.66	9.51492
60.88	4.48703
61.1	8.15479
61.32	7.7732
61.54	4.40739
61.76	7.34271
61.98	11.2264
62.2	145.572
62.42	29.626
62.64	14.8508
62.86	7.18917
63.08	9.93819
63.3	11.793
63.52	8.81818
63.74	8.85434
63.96	2.02961
64.18	5.18696
64.4	15.1905
64.62	45.7818
64.84	13.0192
65.06	6.5732
65.28	3.96536
65.5	10.0298
65.72	4.63799
65.94	1.81116
66.16	6.96318
66.38	0.140136
66.6	0.747152
66.82	1.79759
67.04	10.5297
67.26	4.50429
67.48	39.6008
67.7	14.6109
67.92	8.61449
68.14	12.4421
68.36	2.41332
68.58	9.6621
68.8	3.92073
69.02	4.32673
69.24	14.4552
69.46	10.202
69.68	4.00674
69.9	0.531653
70.12	5.89614
70.34	3.2961
70.56	3.87928
70.78	59.5302
71	66.9655
71.22	8.73924
71.44	9.42257
71.66	13.4055
71.88	68.6324
72.1	35.1443
72.32	4.16295
72.54	13.1311
72.76	3.44517
72.98	3.77582
73.2	6.07107
73.42	10.3608
73.64	1.62325
73.86	15.6072
74.08	7.67562
74.3	2.64188
74.52	0.70153
74.74	1.54205
74.96	5.65102
75.18	4.46685
75.4	28.665
75.62	17.9776
75.84	4.32122
76.06	7.26501
76.28	3.43452
76.5	4.88305
76.72	7.9397
76.94	11.9546
77.16	10.6947
77.38	5.4489
77.6	3.80016
77.82	10.1667
78.04	6.25697
78.26	3.05593
78.48	7.43555
78.7	7.71372
78.92	5.33922
79.14	7.47196
79.36	2.64239
79.58	4.70433
79.8	4.65644
80.02	10.5507
80.24	9.4893
80.46	6.19823
80.68	12.1925
80.9	11.9021
81.12	9.77443
81.34	10.7182
81.56	6.73751
81.78	16.6366
82	8.59095
82.22	3.32323
82.44	10.6481
82.66	9.69373
82.88	5.90611
83.1	0.716058
83.32	3.58625
83.54	12.183
83.76	6.84226
83.98	9.50635
84.2	7.24774
84.42	0.982496
84.64	7.58427
84.86	13.357
85.08	17.708
85.3	30.6798
85.52	18.5695
85.74	6.34746
85.96	2.37824
86.18	3.45396
86.4	4.47863
86.62	3.5916
86.84	3.85353
87.06	25.0434
87.28	22.299
87.5	7.83205
87.72	0.94355
87.94	8.21535
88.16	7.79476
88.38	3.76325
88.6	9.47331
88.82	3.11957
89.04	10.082
89.26	4.75026
89.48	21.2482
89.7	13.0143
89.92	7.42662
