Measurement: Powder, Xray Data XY Processed
Mineral: Bobdownsite
Rruff sample: R050109
Ideal chemistry: Ca_9_Mg(PO_4_)_6_(PO_3_F)
Locality: Big Fish River, Yukon Territory, Canada
Source: Rock Currier
Description: Colorless hexagonal tabular crystals, type sample
Diffraction sample description: Powder
Measured chemistry: (Ca_8.76_Na_0.24_)_Σ=9_(Mg_0.72_Fe^3+^_0.13_Al_0.11_Fe^2+^_0.04_)_Σ=1_(P_1.00_O_4_)_6_(P_1.00_O_3_F_1.00_); Fe^2+^ and Fe^3+^ by charge balance
Cell parameters: a: 10.3440(2) b: 10.3440(2) c: 37.0998(8) alpha: 90. beta: 90. gamma: 120. volume: 3437.8(1) crystal system: hexagonal
x	intensity
5	0
5.22	10.2877
5.44	9.0976
5.66	16.692
5.88	8.20397
6.1	9.01658
6.32	9.02066
6.54	7.94291
6.76	11.0711
6.98	7.50255
7.2	14.1138
7.42	6.00441
7.64	5.7255
7.86	3.79725
8.08	7.63684
8.3	5.29705
8.52	5.02198
8.74	0.434578
8.96	9.9036
9.18	4.16902
9.4	11.5997
9.62	11.7243
9.84	9.38868
10.06	4.99329
10.28	4.67064
10.5	10.6222
10.72	7.61243
10.94	23.3652
11.16	0.669303
11.38	8.27017
11.6	5.47985
11.82	9.16886
12.04	10.2598
12.26	7.73246
12.48	0.822515
12.7	3.0232
12.92	9.12299
13.14	4.25957
13.36	6.76225
13.58	6.93609
13.8	70.2904
14.02	10.2448
14.24	4.31624
14.46	7.38298
14.68	2.19962
14.9	7.36852
15.12	5.49277
15.34	1.72642
15.56	6.05949
15.78	7.82317
16	5.84995
16.22	1.70364
16.44	5.76089
16.66	9.76353
16.88	10.0783
17.1	36.0618
17.32	9.99949
17.54	5.94421
17.76	4.87747
17.98	1.63797
18.2	3.71239
18.42	5.91847
18.64	3.06252
18.86	6.14977
19.08	9.39117
19.3	0.185517
19.52	9.47325
19.74	1.59138
19.96	2.75197
20.18	2.90676
20.4	11.2296
20.62	4.2829
20.84	3.30798
21.06	2.26832
21.28	5.32079
21.5	3.19011
21.72	4.52126
21.94	0.335071
22.16	18.3708
22.38	7.3824
22.6	5.39503
22.82	0.186943
23.04	4.24666
23.26	3.34516
23.48	6.35344
23.7	4.46124
23.92	5.91874
24.14	10.572
24.36	2.44507
24.58	9.35414
24.8	7.47613
25.02	3.20163
25.24	0.920269
25.46	11.6212
25.68	4.27958
25.9	7.10839
26.12	31.8723
26.34	12.2087
26.56	0.909916
26.78	55.5616
27	5.07495
27.22	1.05436
27.44	1.13196
27.66	0.985857
27.88	9.07442
28.1	259.356
28.32	9.72889
28.54	2.027
28.76	7.11239
28.98	4.26172
29.2	1.5684
29.42	7.69057
29.64	10.8171
29.86	11.8096
30.08	7.6268
30.3	2.53055
30.52	2.39334
30.74	4.09683
30.96	3.0095
31.18	21.2686
31.4	383.479
31.62	1.66884
31.84	3.35586
32.06	10.4412
32.28	0.443635
32.5	0.265384
32.72	24.7637
32.94	7.12882
33.16	3.28529
33.38	18.1735
33.6	0.079208
33.82	10.7417
34.04	5.86183
34.26	3.90512
34.48	6.8091
34.7	164.81
34.92	12.6832
35.14	3.70807
35.36	39.5708
35.58	7.2678
35.8	7.55807
36.02	45.7186
36.24	13.9283
36.46	2.80834
36.68	5.91963
36.9	1.96867
37.12	2.05519
37.34	1.68753
37.56	7.48264
37.78	13.5135
38	2.54034
38.22	22.5746
38.44	3.56951
38.66	1.53179
38.88	0.609946
39.1	5.64102
39.32	2.71812
39.54	13.6918
39.76	2.71669
39.98	1.73803
40.2	77.5814
40.42	30.3207
40.64	1.34397
40.86	3.25522
41.08	2.10528
41.3	7.23219
41.52	12.2
41.74	0.672763
41.96	7.43611
42.18	35.3257
42.4	10.1326
42.62	2.28258
42.84	6.21077
43.06	1.00785
43.28	1.88308
43.5	13.8889
43.72	0.418723
43.94	18.4025
44.16	27.2267
44.38	4.10184
44.6	1.05314
44.82	5.12284
45.04	34.986
45.26	2.59638
45.48	3.72773
45.7	13.2852
45.92	3.63556
46.14	9.70966
46.36	4.7879
46.58	8.69514
46.8	3.65914
47.02	8.57179
47.24	13.3517
47.46	58.1355
47.68	8.47673
47.9	4.95612
48.12	7.86356
48.34	9.6683
48.56	37.9826
48.78	13.0849
49	28.2117
49.22	1.27026
49.44	4.5876
49.66	1.74979
49.88	3.89412
50.1	3.0371
50.32	10.5351
50.54	2.48403
50.76	23.4192
50.98	4.25981
51.2	14.4537
51.42	6.69653
51.64	2.69074
51.86	14.5398
52.08	5.47032
52.3	4.47625
52.52	4.4027
52.74	0.133277
52.96	2.7189
53.18	9.71314
53.4	58.4994
53.62	143.773
53.84	7.55278
54.06	23.5359
54.28	8.58194
54.5	5.63799
54.72	1.2049
54.94	26.3118
55.16	13.6477
55.38	10.0215
55.6	7.0807
55.82	7.12733
56.04	2.90241
56.26	4.94394
56.48	5.10224
56.7	19.0921
56.92	9.04804
57.14	12.9071
57.36	8.66513
57.58	0.641895
57.8	7.56534
58.02	9.76852
58.24	3.02229
58.46	5.10743
58.68	4.21862
58.9	4.1101
59.12	4.05509
59.34	2.07667
59.56	4.05564
59.78	6.15404
60	16.1124
60.22	33.1426
60.44	8.97426
60.66	8.72948
60.88	8.88223
61.1	9.91009
61.32	4.06275
61.54	14.5554
61.76	0.789718
61.98	9.09422
62.2	3.28019
62.42	1.34832
62.64	6.62738
62.86	3.6787
63.08	6.66202
63.3	3.48028
63.52	3.44677
63.74	9.39235
63.96	5.93749
64.18	10.8326
64.4	12.6089
64.62	3.54006
64.84	4.3943
65.06	3.24018
65.28	25.3029
65.5	7.31718
65.72	4.37013
65.94	3.35778
66.16	6.36418
66.38	3.65827
66.6	11.8532
66.82	6.92279
67.04	11.8848
67.26	7.96034
67.48	5.82526
67.7	6.83254
67.92	0.115132
68.14	6.93535
68.36	5.08601
68.58	2
68.8	10.7249
69.02	6.50826
69.24	7.64972
69.46	1.34699
69.68	8.82133
69.9	2.74457
70.12	7.74148
70.34	2.70629
70.56	5.79001
70.78	5.79134
71	3.73308
71.22	1.82628
71.44	7.81593
71.66	0.397556
71.88	4.59773
72.1	1.37102
72.32	2.35262
72.54	7.41605
72.76	6.40049
72.98	1.41342
73.2	10.4443
73.42	0.342131
73.64	1.37389
73.86	3.70822
74.08	6.78382
74.3	5.06283
74.52	8.38853
74.74	6.47311
74.96	2.39108
75.18	4.15698
75.4	5.03616
75.62	1.99183
75.84	2.75032
76.06	11.6126
76.28	11.5485
76.5	3.5016
76.72	6.07802
76.94	7.13038
77.16	5.37332
77.38	17.5127
77.6	12.7623
77.82	3.88483
78.04	3.01131
78.26	6.19775
78.48	3.61638
78.7	10.8433
78.92	5.95101
79.14	14.8422
79.36	2.7216
79.58	8.46064
79.8	5.53986
80.02	7.37671
80.24	9.19864
80.46	8.05709
80.68	8.71662
80.9	4.32447
81.12	9.18623
81.34	4.07228
81.56	4.16783
81.78	18.3363
82	10.4668
82.22	40.7446
82.44	20.8804
82.66	3.02807
82.88	6.22919
83.1	10.3372
83.32	7.59502
83.54	0.622295
83.76	1.7036
83.98	7.52906
84.2	5.47068
84.42	5.43305
84.64	4.8836
84.86	5.07405
85.08	13.0527
85.3	2.97884
85.52	10.2726
85.74	4.04761
85.96	6.01254
86.18	3.91882
86.4	2.74007
86.62	5.71429
86.84	6.60272
87.06	4.57814
87.28	11.378
87.5	15.4569
87.72	8.80809
87.94	6.70498
88.16	8.89092
88.38	3.07901
88.6	1.24063
88.82	1.39556
89.04	5.76331
89.26	7.15271
89.48	4.48163
89.7	1.39132
89.92	7.51729
