Measurement: Powder, Xray Data XY Processed
Mineral: Bobierrite
Rruff sample: R060681
Ideal chemistry: Mg_3_(PO_4_)_2_8H_2_O
Locality: Kovdor Massif, Kola Peninsula, Murmanskaja Oblast', Northern Region, Russia
Source: Michael Scott
Description: Colorless sectile tabular crystals
Diffraction sample description: Powder
Measured chemistry: (Mg_2.94_Fe_0.05_Mn_0.01_)_Σ=3_(P_1.00_O_4_)_2_·8H_2_O; H_2_O estimated by difference
Cell parameters: a: 4.674(4) b: 27.877(3) c: 10.060(10) alpha: 90. beta: 104.93(7) gamma: 90. volume: 1266(1) crystal system: monoclinic
x	intensity
5	0
5.22	10.8313
5.44	7.0459
5.66	21.7139
5.88	26.996
6.1	43.867
6.32	294.359
6.54	60.0291
6.76	20.1814
6.98	10.2768
7.2	13.4937
7.42	0.022255
7.64	4.95003
7.86	12.1844
8.08	20.3118
8.3	5.76043
8.52	4.15606
8.74	20.3942
8.96	13.0294
9.18	7.61424
9.4	16.646
9.62	13.7341
9.84	14.0549
10.06	13.933
10.28	28.756
10.5	7.94556
10.72	20.2531
10.94	11.0879
11.16	223.149
11.38	11.1726
11.6	2.37621
11.82	9.38797
12.04	5.13845
12.26	13.3786
12.48	89.6951
12.7	4890.57
12.92	335.501
13.14	66.7913
13.36	24.5354
13.58	17.8319
13.8	17.8102
14.02	9.06585
14.24	13.5196
14.46	0.007774
14.68	22.6295
14.9	0.888752
15.12	11.478
15.34	14.6205
15.56	10.1285
15.78	9.88067
16	6.45686
16.22	21.2687
16.44	20.9099
16.66	17.375
16.88	19.3344
17.1	9.28852
17.32	2.29358
17.54	11.6957
17.76	18.945
17.98	5.03688
18.2	14.1727
18.42	12.1946
18.64	0.555244
18.86	18.4866
19.08	13.8729
19.3	12.6585
19.52	14.3817
19.74	2.14638
19.96	5.57193
20.18	3.60572
20.4	11.9078
20.62	6.81025
20.84	6.89009
21.06	19.7292
21.28	51.956
21.5	9.45906
21.72	45.6765
21.94	21.9474
22.16	12.8511
22.38	34.4547
22.6	0.254269
22.82	7.85637
23.04	4.81421
23.26	12.5542
23.48	24.4935
23.7	12.8637
23.92	2.03918
24.14	19.9359
24.36	3.8439
24.58	14.5908
24.8	14.157
25.02	10.7232
25.24	40.4776
25.46	17.4498
25.68	35.1362
25.9	14.1096
26.12	17.8006
26.34	9.37433
26.56	7.1302
26.78	20.3098
27	15.3996
27.22	22.8198
27.44	21.2395
27.66	18.8887
27.88	18.0929
28.1	19.3738
28.32	41.0736
28.54	5.63646
28.76	21.0704
28.98	1.09044
29.2	22.2495
29.42	3.75512
29.64	39.9217
29.86	38.5527
30.08	16.2557
30.3	4.40111
30.52	41.4086
30.74	14.5091
30.96	14.9665
31.18	5.52825
31.4	8.06366
31.62	36.6399
31.84	23.0791
32.06	15.8312
32.28	13.2665
32.5	14.2537
32.72	13.1745
32.94	3.846
33.16	0.83707
33.38	1.54408
33.6	40.1569
33.82	19.5963
34.04	23.0163
34.26	11.6089
34.48	6.69515
34.7	8.14672
34.92	15.9831
35.14	68.2269
35.36	27.3161
35.58	1.1718
35.8	22.8647
36.02	16.9742
36.24	20.2951
36.46	1.53104
36.68	28.6807
36.9	15.7991
37.12	63.202
37.34	86.0786
37.56	7.77145
37.78	8.88049
38	5.03933
38.22	0.733719
38.44	5.67522
38.66	11.4184
38.88	0.335159
39.1	6.25996
39.32	9.15262
39.54	14.8805
39.76	12.8798
39.98	9.57643
40.2	14.4421
40.42	10.5187
40.64	6.8001
40.86	21.3378
41.08	15.5284
41.3	2.23336
41.52	4.37015
41.74	18.1134
41.96	0.02644
42.18	20.1576
42.4	19.8043
42.62	10.5822
42.84	47.6488
43.06	28.3224
43.28	13.9602
43.5	12.0709
43.72	3.95499
43.94	10.8251
44.16	17.5796
44.38	9.88285
44.6	18.3708
44.82	26.5377
45.04	11.6624
45.26	13.9516
45.48	7.94952
45.7	9.53742
45.92	2.14718
46.14	3.08162
46.36	16.8238
46.58	6.82554
46.8	14.235
47.02	6.44355
47.24	2.50592
47.46	9.32091
47.68	18.487
47.9	15.8757
48.12	4.59187
48.34	1.05981
48.56	11.652
48.78	16.6112
49	4.51364
49.22	6.42393
49.44	3.97652
49.66	13.5371
49.88	7.47017
50.1	1.07912
50.32	14.522
50.54	9.34204
50.76	3.88012
50.98	14.22
51.2	12.9227
51.42	15.6718
51.64	0.510344
51.86	2.31227
52.08	5.17338
52.3	5.24251
52.52	79.1119
52.74	15.2262
52.96	11.6762
53.18	18.2317
53.4	7.83716
53.62	2.76158
53.84	1.72635
54.06	0.350033
54.28	8.64269
54.5	4.84889
54.72	16.6408
54.94	5.75689
55.16	7.24957
55.38	4.4588
55.6	2.88212
55.82	15.1046
56.04	16.292
56.26	3.0819
56.48	8.25391
56.7	1.20832
56.92	7.14411
57.14	6.52442
57.36	4.45075
57.58	4.91913
57.8	13.8754
58.02	7.10869
58.24	10.4142
58.46	14.4584
58.68	2.05803
58.9	5.15502
59.12	4.60966
59.34	7.07638
59.56	1.22254
59.78	17.3313
60	2.46292
60.22	15.7436
60.44	2.4343
60.66	15.3135
60.88	3.41379
61.1	19.8013
61.32	14.9496
61.54	15.0137
61.76	15.1902
61.98	0.780308
62.2	2.89898
62.42	1.03086
62.64	6.20371
62.86	4.19719
63.08	16.4029
63.3	21.6474
63.52	13.4076
63.74	0.489395
63.96	12.077
64.18	4.04634
64.4	3.31795
64.62	4.98051
64.84	10.0709
65.06	7.99381
65.28	7.2112
65.5	13.2044
65.72	1.67649
65.94	7.46627
66.16	3.24064
66.38	13.2282
66.6	7.15066
66.82	12.8761
67.04	13.3764
67.26	32.4039
67.48	18.9704
67.7	6.159
67.92	12.1514
68.14	5.13062
68.36	9.13129
68.58	10.5829
68.8	7.74936
69.02	6.95259
69.24	7.936
69.46	7.03556
69.68	20.8934
69.9	2.52782
70.12	4.38793
70.34	5.26634
70.56	10.6224
70.78	0.273337
71	12.9167
71.22	8.3364
71.44	13.5052
71.66	3.76233
71.88	7.82513
72.1	18.0038
72.32	6.21326
72.54	17.2116
72.76	8.49583
72.98	1.12623
73.2	6.04816
73.42	11.6065
73.64	7.59876
73.86	8.45291
74.08	0.390079
74.3	6.29232
74.52	2.68874
74.74	1.44724
74.96	9.82425
75.18	15.7292
75.4	10.782
75.62	8.95196
75.84	11.685
76.06	3.66108
76.28	7.84459
76.5	12.8889
76.72	0.944574
76.94	17.9749
77.16	5.82004
77.38	16.4367
77.6	1.50142
77.82	2.82188
78.04	7.82908
78.26	12.9652
78.48	15.0431
78.7	4.23911
78.92	10.5541
79.14	13.2958
79.36	9.375
79.58	3.4696
79.8	0.029869
80.02	3.96084
80.24	8.74599
80.46	3.80705
80.68	10.9576
80.9	11.2868
81.12	4.04627
81.34	4.75724
81.56	8.76857
81.78	0.596601
82	0.607628
82.22	8.30989
82.44	6.18017
82.66	6.98516
82.88	7.10117
83.1	12.8497
83.32	12.5741
83.54	6.71901
83.76	13.9598
83.98	4.22316
84.2	7.32059
84.42	8.75864
84.64	0.841322
84.86	7.0917
85.08	1.3794
85.3	9.2012
85.52	13.1814
85.74	3.40811
85.96	11.0132
86.18	1.92871
86.4	6.62433
86.62	3.53488
86.84	5.39195
87.06	13.3269
87.28	13.2502
87.5	6.18071
87.72	3.3765
87.94	2.60946
88.16	3.58678
88.38	2.10113
88.6	6.60369
88.82	9.12122
89.04	14.4526
89.26	6.09801
89.48	10.0559
89.7	12.2868
89.92	0.722413
