Measurement: Powder, Xray Data XY Processed
Mineral: Bottinoite
Rruff sample: R060263
Ideal chemistry: Ni^2+^Sb^5+^_2_(OH)_12_6H_2_O
Locality: Ramsbeck mine, Dornberg, Sauerland, Germany
Source: Michael Scott
Description: Spherical aggregate of pale greenish-blue tabular crystals
Diffraction sample description: Single crystal, powder profile is calculated
Measured chemistry: Ni^2+^_1.00_(Sb^5+^_1.99_As_0.01_)_Σ=2_(OH)_12_·1.2H_2_O ; = gray phase. (dehydrated bottinoite due to the electronic beam)
Cell parameters: a: 16.061(2) b: 16.061(2) c: 9.795(1) alpha: 90 beta: 90 gamma: 120 volume: 2188.2(8) crystal system: hexagonal
x	intensity
5	0
5.22	0
5.44	0
5.66	0
5.88	0
6.1	0
6.32	0.003
6.54	0
6.76	0
6.98	0
7.2	0
7.42	0
7.64	0
7.86	0
8.08	0
8.3	0
8.52	0
8.74	0
8.96	0.274
9.18	0
9.4	0
9.62	0
9.84	0
10.06	0
10.28	0
10.5	0
10.72	0
10.94	0.088
11.16	0
11.38	0
11.6	0
11.82	0
12.04	0
12.26	0
12.48	0
12.7	0.004
12.92	0
13.14	0
13.36	0
13.58	0
13.8	0
14.02	0
14.24	2.565
14.46	0
14.68	0
14.9	0
15.12	0
15.34	0
15.56	0.003
15.78	0
16	0
16.22	0
16.44	0
16.66	0
16.88	0.039
17.1	0
17.32	0
17.54	0
17.76	0
17.98	0.002
18.2	2.89
18.42	0
18.64	0
18.86	0
19.08	21.785
19.3	0.328
19.52	0
19.74	0
19.96	0
20.18	0
20.4	0
20.62	0
20.84	0
21.06	0
21.28	1.658
21.5	0
21.72	0
21.94	0
22.16	1.643
22.38	0
22.6	0
22.82	0
23.04	0.006
23.26	0
23.48	0
23.7	0
23.92	0.589
24.14	0
24.36	0
24.58	0
24.8	1.682
25.02	0
25.24	0
25.46	0
25.68	0.001
25.9	0
26.12	0
26.34	0.033
26.56	11.94
26.78	0
27	0
27.22	0.021
27.44	0.009
27.66	0
27.88	0
28.1	0.006
28.32	0
28.54	0
28.76	0.327
28.98	0
29.2	0
29.42	1.506
29.64	0.057
29.86	0
30.08	0
30.3	0.006
30.52	0
30.74	0.029
30.96	0.038
31.18	0
31.4	0
31.62	0.43
31.84	0
32.06	0
32.28	0.01
32.5	0
32.72	0
32.94	0
33.16	0
33.38	0.503
33.6	1.356
33.82	0
34.04	0.005
34.26	0
34.48	0
34.7	4.602
34.92	0.073
35.14	0
35.36	0.161
35.58	0.008
35.8	0
36.02	0.2
36.24	0
36.46	0
36.68	0.017
36.9	0
37.12	0.674
37.34	0.079
37.56	0
37.78	0.003
38	0
38.22	1.325
38.44	2.757
38.66	0
38.88	2.078
39.1	0.115
39.32	0.001
39.54	0.09
39.76	0
39.98	0.128
40.2	0
40.42	0.081
40.64	1.366
40.86	0
41.08	0
41.3	0
41.52	0.262
41.74	3.207
41.96	0
42.18	0
42.4	0
42.62	0.012
42.84	0.004
43.06	0.426
43.28	4.79
43.5	0
43.72	1.99
43.94	0.128
44.16	0.012
44.38	0.003
44.6	0.229
44.82	0.399
45.04	0.001
45.26	0.882
45.48	0.007
45.7	0.077
45.92	0
46.14	0.09
46.36	0.024
46.58	0.213
46.8	0.509
47.02	0
47.24	0
47.46	0
47.68	1.095
47.9	0.07
48.12	0.512
48.34	0.002
48.56	0.119
48.78	0.006
49	0.074
49.22	0.001
49.44	0.518
49.66	0.413
49.88	0
50.1	0
50.32	0.08
50.54	2.624
50.76	0.038
50.98	0.766
51.2	0.004
51.42	0.039
51.64	0
51.86	0.011
52.08	0.699
52.3	5.48
52.52	0.015
52.74	0
52.96	0.025
53.18	0.482
53.4	0
53.62	0.007
53.84	0.002
54.06	0.019
54.28	0
54.5	4.627
54.72	0.073
54.94	0.664
55.16	0.006
55.38	0.017
55.6	1.42
55.82	5.196
56.04	0.042
56.26	0.071
56.48	0.103
56.7	0.085
56.92	0.114
57.14	0
57.36	0.476
57.58	0.867
57.8	0.072
58.02	0.227
58.24	0.024
58.46	0.086
58.68	0.022
58.9	0.044
59.12	0.015
59.34	0.074
59.56	0.04
59.78	2.067
60	1.406
60.22	0.694
60.44	0.001
60.66	0.036
60.88	0.002
61.1	0.407
61.32	0.343
61.54	0.016
61.76	0.107
61.98	0.354
62.2	0.147
62.42	0.073
62.64	0
62.86	0.3
63.08	1.332
63.3	0.175
63.52	0
63.74	0.004
63.96	0.07
64.18	0.231
64.4	0.041
64.62	0.164
64.84	0.982
65.06	0.125
65.28	0.022
65.5	1.27
65.72	0.102
65.94	0.01
66.16	0.007
66.38	0.163
66.6	0.036
66.82	0.043
67.04	0.27
67.26	0.22
67.48	0.371
67.7	0.287
67.92	0.024
68.14	0.053
68.36	0.013
68.58	0.126
68.8	0.148
69.02	0
69.24	0.244
69.46	0.142
69.68	0.007
69.9	0
70.12	0.036
70.34	0.661
70.56	0.6
70.78	0.12
71	0.242
71.22	0.149
71.44	0.307
71.66	0.755
71.88	0.207
72.1	0.043
72.32	0.266
72.54	0.137
72.76	0.025
72.98	0.006
73.2	0.414
73.42	0.299
73.64	1.598
73.86	0.678
74.08	0.002
74.3	0.148
74.52	0.084
74.74	0.09
74.96	0.186
75.18	0.08
75.4	0.015
75.62	0.005
75.84	0.104
76.06	0.051
76.28	0.008
76.5	1.571
76.72	0.689
76.94	0.047
77.16	0.048
77.38	0.015
77.6	0.003
77.82	0
78.04	0.223
78.26	0.214
78.48	0.07
78.7	0.026
78.92	0.025
79.14	0.319
79.36	0.255
79.58	0.141
79.8	0.044
80.02	0.041
80.24	0.186
80.46	0.206
80.68	0.121
80.9	0.038
81.12	0.024
81.34	0.006
81.56	0.009
81.78	0.148
82	0.435
82.22	0.323
82.44	0.051
82.66	0.183
82.88	0.081
83.1	0.089
83.32	0.438
83.54	0.188
83.76	0.021
83.98	0.045
84.2	0.025
84.42	0.022
84.64	0.072
84.86	0.087
85.08	0.133
85.3	0.016
85.52	0.203
85.74	0.213
85.96	0.109
86.18	0.693
86.4	0.406
86.62	0.104
86.84	0.055
87.06	0.016
87.28	0.003
87.5	0.061
87.72	0.18
87.94	0.134
88.16	0.025
88.38	0.006
88.6	0.024
88.82	0.012
89.04	0.037
89.26	0.039
89.48	0.043
89.7	0.102
89.92	0.041
