Measurement: Powder, Xray Data XY Processed
Mineral: Bournonite
Rruff sample: R050364
Ideal chemistry: Cu^1+^Pb^2+^Sb^3+^S^2-^_3_
Locality: Neudorf, Harz Mountains, Austria
Source: University of Arizona Mineral Museum
Description: Black fragment
Diffraction sample description: Powder
Measured chemistry: Pb_1.00_Cu_1.00_Sb_1.00_S_3.00_
Cell parameters: a: 8.1555(8) b: 8.7085(7) c: 7.8132(7) alpha: 90. beta: 90. gamma: 90. volume: 554.92(5) crystal system: orthorhombic
x	intensity
5	0
5.22	7.71091
5.44	13.8662
5.66	1.34369
5.88	2.6427
6.1	3.38752
6.32	1.29351
6.54	4.25075
6.76	6.10271
6.98	11.033
7.2	10.1644
7.42	10.5097
7.64	4.68237
7.86	3.93207
8.08	9.10051
8.3	2.23267
8.52	2.40806
8.74	7.4813
8.96	12.7986
9.18	7.01475
9.4	2.94366
9.62	4.65323
9.84	6.40171
10.06	4.29502
10.28	2.96397
10.5	7.05532
10.72	3.03165
10.94	8.13215
11.16	0.927624
11.38	3.91959
11.6	9.00627
11.82	4.08577
12.04	1.23797
12.26	1.68894
12.48	5.20043
12.7	5.23152
12.92	0.820821
13.14	5.09957
13.36	7.98736
13.58	7.75192
13.8	2.75734
14.02	2.48479
14.24	8.27771
14.46	6.10532
14.68	1.9269
14.9	5.81851
15.12	1.26939
15.34	15.5071
15.56	0.206089
15.78	23.8027
16	4.90087
16.22	8.79949
16.44	9.80351
16.66	4.98067
16.88	3.91292
17.1	1.91576
17.32	0.006099
17.54	0.991213
17.76	4.98621
17.98	6.9101
18.2	9.78793
18.42	4.78571
18.64	0.996786
18.86	15.875
19.08	0.255403
19.3	6.72719
19.52	2.67709
19.74	4.50141
19.96	7.57792
20.18	7.01924
20.4	13.7389
20.62	10.4995
20.84	8.26019
21.06	6.75894
21.28	5.50593
21.5	3.13871
21.72	2.64195
21.94	24.1338
22.16	3.64339
22.38	1.77532
22.6	3.07245
22.82	87.582
23.04	17.2712
23.26	70.0567
23.48	9.00708
23.7	7.07063
23.92	4.48817
24.14	44.1231
24.36	11.7201
24.58	2.39393
24.8	3.86155
25.02	9.52491
25.24	2.98514
25.46	2.64698
25.68	1.91482
25.9	6.26619
26.12	1.72753
26.34	2.9728
26.56	0.74363
26.78	6.44328
27	6.45988
27.22	6.42875
27.44	31.0414
27.66	9.77018
27.88	6.65058
28.1	4.58656
28.32	1.40487
28.54	1.17344
28.76	9.95948
28.98	5.76451
29.2	2.70072
29.42	1.46303
29.64	1.13946
29.86	4.76495
30.08	69.0497
30.3	12.4071
30.52	6.91282
30.74	15.311
30.96	18.1291
31.18	12.6491
31.4	5.08174
31.62	0.271506
31.84	66.4338
32.06	4.99856
32.28	27.6068
32.5	2.71489
32.72	116.837
32.94	42.6463
33.16	23.0343
33.38	59.0918
33.6	33.4857
33.82	9.03406
34.04	1.68668
34.26	3.66948
34.48	11.2875
34.7	41.2187
34.92	8.8786
35.14	7.18798
35.36	12.0649
35.58	5.37442
35.8	1.11881
36.02	9.87754
36.24	12.189
36.46	8.55235
36.68	7.38718
36.9	5.51566
37.12	3.69993
37.34	8.2544
37.56	2.18853
37.78	5.42688
38	15.202
38.22	12.7962
38.44	6.35755
38.66	8.39682
38.88	3.39263
39.1	17.5529
39.32	9.47526
39.54	5.46637
39.76	4.57424
39.98	16.6125
40.2	7.3313
40.42	9.34927
40.64	3.31814
40.86	6.21125
41.08	4.1865
41.3	9.02737
41.52	16.1028
41.74	9.11312
41.96	6.09425
42.18	13.0665
42.4	3.94072
42.62	7.09819
42.84	9.37804
43.06	34.5562
43.28	6.69559
43.5	3.70243
43.72	12.3641
43.94	8.17804
44.16	11.1794
44.38	0.099629
44.6	5.72306
44.82	15.1276
45.04	4.67812
45.26	3.10542
45.48	3.72034
45.7	22.1189
45.92	15.0334
46.14	5.12704
46.36	23.1568
46.58	37.2216
46.8	15.0434
47.02	9.21923
47.24	14.5596
47.46	9.63483
47.68	10.7992
47.9	3.93276
48.12	0.968981
48.34	9.84774
48.56	8.5163
48.78	12.5571
49	9.53282
49.22	34.906
49.44	19.7611
49.66	7.33511
49.88	1.87453
50.1	2.41995
50.32	6.01249
50.54	5.6142
50.76	2.22735
50.98	15.8706
51.2	10.213
51.42	6.57066
51.64	31.8981
51.86	31.8468
52.08	17.7557
52.3	6.41369
52.52	6.71112
52.74	12.0527
52.96	7.73498
53.18	14.2796
53.4	18.9982
53.62	3.4032
53.84	0.399519
54.06	3.84172
54.28	7.99669
54.5	9.35303
54.72	1.64685
54.94	6.6954
55.16	11.576
55.38	21.7059
55.6	13.6816
55.82	5.72033
56.04	0.875921
56.26	12.015
56.48	14.0458
56.7	2.06237
56.92	4.9969
57.14	0.108857
57.36	8.65806
57.58	10.5428
57.8	12.3569
58.02	9.19841
58.24	3.70275
58.46	0.26823
58.68	10.9699
58.9	11.1237
59.12	13.4511
59.34	21.9289
59.56	1.20577
59.78	8.55023
60	1.35178
60.22	5.32742
60.44	4.48453
60.66	3.57672
60.88	5.69694
61.1	4.70065
61.32	8.48301
61.54	10.152
61.76	3.83598
61.98	9.66253
62.2	0.763976
62.42	3.77834
62.64	8.36485
62.86	3.56175
63.08	3.35304
63.3	3.93577
63.52	4.3312
63.74	2.36786
63.96	4.75471
64.18	12.6603
64.4	5.31861
64.62	6.18718
64.84	6.09728
65.06	13.1121
65.28	9.13534
65.5	5.36867
65.72	22.9016
65.94	6.93249
66.16	10.786
66.38	5.33977
66.6	10.2672
66.82	12.0772
67.04	10.8277
67.26	15.6349
67.48	4.35588
67.7	4.88583
67.92	6.36023
68.14	9.01219
68.36	1.66607
68.58	7.30946
68.8	4.64132
69.02	3.68523
69.24	3.79283
69.46	0.080699
69.68	1.74394
69.9	8.5285
70.12	4.85233
70.34	15.3026
70.56	6.86155
70.78	4.20256
71	7.19835
71.22	12.0434
71.44	8.2444
71.66	3.36661
71.88	2.42768
72.1	0.435968
72.32	3.61223
72.54	4.60899
72.76	5.53929
72.98	9.43835
73.2	10.1759
73.42	9.0043
73.64	11.8735
73.86	7.7604
74.08	4.60284
74.3	4.56923
74.52	9.53209
74.74	10.3072
74.96	4.30213
75.18	7.00219
75.4	9.53689
75.62	6.54049
75.84	7.0794
76.06	13.8555
76.28	11.4902
76.5	11.4117
76.72	4.16484
76.94	4.01338
77.16	13.9418
77.38	10.8194
77.6	7.03085
77.82	16.4045
78.04	8.71605
78.26	0.219805
78.48	3.03994
78.7	5.58917
78.92	4.96286
79.14	9.49799
79.36	7.72342
79.58	11.7616
79.8	2.77793
80.02	8.78961
80.24	4.70101
80.46	9.51673
80.68	2.17977
80.9	10.6819
81.12	7.29825
81.34	15.4278
81.56	3.08812
81.78	6.00474
82	2.17682
82.22	3.4941
82.44	10.5802
82.66	4.38164
82.88	4.72333
83.1	3.73401
83.32	5.75667
83.54	6.7153
83.76	3.69656
83.98	11.6114
84.2	26.8921
84.42	12.4419
84.64	8.12578
84.86	10.9094
85.08	11.5464
85.3	5.43145
85.52	9.54763
85.74	2.46091
85.96	7.34361
86.18	0.052423
86.4	0.893575
86.62	7.60635
86.84	6.69048
87.06	6.66556
87.28	7.73048
87.5	1.7835
87.72	6.8817
87.94	0.910237
88.16	8.44843
88.38	20.714
88.6	17.0124
88.82	0.84011
89.04	5.31587
89.26	5.81682
89.48	6.85325
89.7	6.09662
89.92	3.78358
