Measurement: Powder, Xray Data XY Processed
Mineral: Braitschite-(Ce)
Rruff sample: R060008
Ideal chemistry: Ca_6.15_Na_0.85_Ce_2_[B_6_O_7_(OH)_3_(O,OH)_3_]_4_H_2_O
Locality: Texas Gulf Sulfur Potash mine, Cisco, Utah, USA
Source: University of Arizona Mineral Museum
Description: Pink blebs embedded in anhydrite
Diffraction sample description: Powder, using Mo radiation
Cell parameters: a: 12.232(4) b: 12.232(4) c: 7.409(2) alpha: 90 beta: 90 gamma: 120 volume: 960.1(5) crystal system: hexagonal
x	intensity
6.59	0
6.74	74.5242
6.89	98.8701
7.04	10.4734
7.19	6.17667
7.34	1.10217
7.49	87.2315
7.64	264.687
7.79	365.184
7.94	206.376
8.09	59.1937
8.24	20.7002
8.39	5.25806
8.54	16.7269
8.69	44.4914
8.84	32.8044
8.99	2.45877
9.14	52.1717
9.29	521.054
9.44	1478.94
9.59	1621.14
9.74	733.677
9.89	140.281
10.04	63.3188
10.19	67.4342
10.34	48.49
10.49	29.8836
10.64	5.02008
10.79	0.826599
10.94	9.35767
11.09	18.9617
11.24	3.78278
11.39	5.28125
11.54	62.2793
11.69	90.8681
11.84	52.5543
11.99	8.68106
12.14	19.4576
12.29	40.6798
12.44	200.597
12.59	405.79
12.74	817.124
12.89	1180.21
13.04	915.995
13.19	443.307
13.34	857.599
13.49	1477.34
13.64	1101.46
13.79	395.739
13.94	218.365
14.09	291.791
14.24	1160.2
14.39	3543.29
14.54	4560.3
14.69	2445.42
14.84	736.055
14.99	552.596
15.14	508.006
15.29	258.199
15.44	89.8115
15.59	43.5698
15.74	27.2541
15.89	172.452
16.04	351.696
16.19	349.429
16.34	281.123
16.49	315.181
16.64	209.867
16.79	36.138
16.94	13.0894
17.09	11.5269
17.24	5.66226
17.39	32.4959
17.54	41.8013
17.69	18.6063
17.84	34.8787
17.99	13.8529
18.14	32.0268
18.29	158.787
18.44	169.628
18.59	28.7094
18.74	14.7159
18.89	245.399
19.04	672.155
19.19	700.78
19.34	425.964
19.49	440.893
19.64	386.61
19.79	121.392
19.94	21.54
20.09	179.884
20.24	722.092
20.39	1685.6
20.54	2261.28
20.69	1504.95
20.84	708.777
20.99	662.028
21.14	774.443
21.29	1175.83
21.44	1344.63
21.59	864.827
21.74	419.212
21.89	217.542
22.04	240.682
22.19	368.691
22.34	257.57
22.49	55.2099
22.64	14.5242
22.79	12.2174
22.94	20.157
23.09	218.131
23.24	682.491
23.39	1045.75
23.54	809.25
23.69	278.345
23.84	64.2894
23.99	45.0384
24.14	101.407
24.29	122.486
24.44	83.2228
24.59	11.4172
24.74	19.4576
24.89	57.7151
25.04	322.589
25.19	534.966
25.34	371.004
25.49	85.7243
25.64	6.98322
25.79	42.1588
25.94	114.112
26.09	158.312
26.24	178.713
26.39	189.101
26.54	203.801
26.69	114.573
26.84	29.8508
26.99	17.072
27.14	76.1983
27.29	85.8373
27.44	72.4126
27.59	49.374
27.74	42.8733
27.89	39.0236
28.04	55.17
28.19	44.0706
28.34	24.0346
28.49	51.8885
28.64	161.027
28.79	252.702
28.94	353.381
29.09	434.358
29.24	343.493
29.39	155.267
29.54	48.8546
29.69	8.18149
29.84	13.7156
29.99	16.7477
30.14	69.7092
30.29	160.758
30.44	181.517
30.59	81.6981
30.74	5.7215
30.89	42.4598
31.04	111.092
31.19	138.338
31.34	122.147
31.49	109.798
31.64	139.916
31.79	247.145
31.94	270.253
32.09	199.004
32.24	159.849
32.39	275.113
32.54	549.406
32.69	742.028
32.84	571.311
32.99	251.069
33.14	85.086
33.29	75.3257
33.44	63.4575
33.59	72.2651
33.74	4.86883
33.89	2.42706
34.04	0.281036
34.19	12.3651
34.34	15.6093
34.49	30.6639
34.64	91.4501
34.79	117.618
34.94	70.3121
35.09	42.5493
35.24	37.5373
35.39	69.269
35.54	126.207
35.69	266.353
35.84	465.555
35.99	492.997
36.14	354.417
36.29	201.595
36.44	94.272
36.59	46.7311
36.74	16.1853
36.89	2.14038
37.04	0.355652
37.19	12.2303
37.34	5.67722
37.49	0.971832
37.64	6.96573
37.79	23.4466
37.94	27.5076
38.09	39.1553
38.24	20.938
38.39	0.468781
38.54	9.80777
38.69	2.77194
38.84	20.1688
38.99	3.84927
39.14	0.539856
39.29	20.4438
39.44	51.4671
39.59	92.8224
39.74	128.919
39.89	152.954
40.04	119.738
40.19	78.4287
40.34	24.8262
40.49	1.89963
40.64	2.97766
40.79	20.9202
40.94	102.134
41.09	154.321
41.24	150.901
41.39	131.286
41.54	158.043
41.69	157.247
41.84	134.228
41.99	92
42.14	58.328
42.29	49.7023
42.44	43.2304
42.59	25.8227
42.74	15.9816
42.89	7.15076
43.04	2.64188
43.19	1.13861
43.34	16.0252
43.49	7.88919
43.64	15.3007
43.79	11.1893
43.94	19.2858
44.09	83.1844
44.24	145.034
44.39	152.977
44.54	143.72
44.69	89.3665
44.84	40.5099
44.99	22.0273
45.14	19.5473
45.29	18.1415
45.44	23.4635
45.59	23.6659
45.74	25.6873
45.89	37.1951
46.04	30.5349
46.19	35.0808
46.34	28.6814
46.49	8.33191
46.64	27.929
46.79	64.2774
46.94	67.5888
47.09	73.1184
47.24	49.6865
47.39	22.3329
47.54	15.14
47.69	1.94955
47.84	0.332947
47.99	10.5667
48.14	11.8973
48.29	28.0839
48.44	42.2254
48.59	42.1818
48.74	31.0793
48.89	49.7212
49.04	69.7752
49.19	82.7615
49.34	48.8818
49.49	30.2712
49.64	24.6744
49.79	23.8556
49.94	17.6032
50.09	30.8336
50.24	14.2937
50.39	3.46829
50.54	0.252289
50.69	4.81546
50.84	27.25
50.99	32.7089
51.14	42.1114
51.29	33.5165
51.44	33.5172
51.59	31.598
51.74	33.5515
51.89	23.1255
52.04	2.71738
52.19	1.13998
52.34	15.472
52.49	10.12
52.64	34.083
52.79	36.7186
52.94	37.7813
53.09	49.8189
53.24	32.9164
53.39	42.2265
53.54	35.8653
53.69	64.2897
53.84	74.8212
53.99	55.3218
54.14	82.0275
54.29	44.82
54.44	18.4138
54.59	16.6479
54.74	9.58496
54.89	0.211395
55.04	8.8996
55.19	20.6096
55.34	16.6553
55.49	26.5695
55.64	31.2224
55.79	39.8131
55.94	53.8844
56.09	73.2691
56.24	53.8749
56.39	43.8154
56.54	25.3168
56.69	14.2054
56.84	3.30759
56.99	3.93613
57.14	6.54935
57.29	0
