Measurement: Powder, Xray Data XY Processed
Mineral: Brannerite
Rruff sample: R060613
Ideal chemistry: U^4+^Ti^4+^_2_O_6_
Locality: Crocker's Well, South Australia, Australia
Source: Michael Scott
Description: Dark brown massive amorphous, note that a fragment of this sample was heated and is posted at R080091
Diffraction sample description: Powder
Measured chemistry: (U^4+^_0.42_U^6+^_0.23_Th_0.13_Ca_0.12_Y_0.05_Pb_0.05_)_Σ=1_(Ti_1.93_Fe^3+^_0.07_)_2_O_6_ ; (gray phase).  (Th_0.81_U^4+^_0.13_Ca_0.02_Y_0.02_Pb_0.02_)_Σ=1_(Ti_1.98_Fe^3+^_0.02_)_Σ=2_(O_5.88_(OH)_0.12_)_Σ=6_ (bright phase = thorutite)
x	intensity
5	0
5.22	12.5894
5.44	9.23678
5.66	14.3623
5.88	11.981
6.1	4.18923
6.32	7.43725
6.54	5.73896
6.76	1.36819
6.98	23.3175
7.2	7.51679
7.42	6.75011
7.64	2.92053
7.86	1.42413
8.08	8.42493
8.3	4.38504
8.52	3.10122
8.74	4.8966
8.96	6.67577
9.18	0.092957
9.4	6.83958
9.62	0.797438
9.84	8.44965
10.06	6.38632
10.28	3.45928
10.5	10.1525
10.72	4.48029
10.94	7.64857
11.16	8.84315
11.38	8.1489
11.6	4.37251
11.82	11.5456
12.04	3.57542
12.26	6.71711
12.48	5.7411
12.7	8.68648
12.92	11.2954
13.14	1.72981
13.36	3.35722
13.58	9.31962
13.8	5.17913
14.02	2.22146
14.24	11.2255
14.46	1.24357
14.68	10.1892
14.9	11.1798
15.12	6.24862
15.34	8.36118
15.56	7.22582
15.78	5.05092
16	6.02515
16.22	5.99676
16.44	0.273521
16.66	4.59934
16.88	4.41675
17.1	4.53275
17.32	3.42631
17.54	6.44129
17.76	14.9129
17.98	10.7222
18.2	8.53363
18.42	7.30248
18.64	14.1972
18.86	3.96756
19.08	11.7964
19.3	3.59939
19.52	3.54448
19.74	2.19417
19.96	9.81165
20.18	11.0229
20.4	6.01664
20.62	13.0703
20.84	5.19118
21.06	3.28729
21.28	8.32673
21.5	13.5948
21.72	9.40549
21.94	3.46797
22.16	3.94964
22.38	0.033621
22.6	6.75977
22.82	7.83354
23.04	4.79409
23.26	8.80729
23.48	8.57199
23.7	5.74186
23.92	6.43642
24.14	0.210568
24.36	7.96684
24.58	3.87162
24.8	9.75302
25.02	7.60754
25.24	11.2889
25.46	6.02431
25.68	13.6492
25.9	4.54
26.12	7.37093
26.34	4.07322
26.56	5.88446
26.78	11.7714
27	6.54134
27.22	0.178688
27.44	24.2346
27.66	7.04491
27.88	5.9856
28.1	3.85527
28.32	6.53477
28.54	0.097406
28.76	11.0126
28.98	4.79295
29.2	8.92783
29.42	1.82291
29.64	4.80734
29.86	4.49897
30.08	7.47797
30.3	8.62979
30.52	7.0339
30.74	6.25633
30.96	5.80698
31.18	4.13069
31.4	9.54278
31.62	2.7069
31.84	3.28823
32.06	6.54459
32.28	4.9455
32.5	13.5069
32.72	0.945889
32.94	11.3325
33.16	8.89815
33.38	1.99215
33.6	9.44806
33.82	6.75373
34.04	4.0793
34.26	4.49711
34.48	9.75723
34.7	1.97962
34.92	6.13637
35.14	2.96061
35.36	7.159
35.58	7.16286
35.8	10.3212
36.02	9.5371
36.24	7.09855
36.46	9.18542
36.68	5.12303
36.9	6.40863
37.12	1.43407
37.34	12.57
37.56	8.62671
37.78	14.6084
38	0.346186
38.22	14.5812
38.44	4.27766
38.66	6.11214
38.88	11.0073
39.1	2.69295
39.32	2.73475
39.54	5.91134
39.76	6.91897
39.98	6.92303
40.2	5.91413
40.42	2.01502
40.64	7.05175
40.86	2.84307
41.08	9.94042
41.3	10.9467
41.52	7.94035
41.74	0.708595
41.96	7.55409
42.18	8.50844
42.4	8.51919
42.62	5.40416
42.84	3.07969
43.06	1.92826
43.28	7.66819
43.5	4.50383
43.72	5.62394
43.94	6.33554
44.16	5.41798
44.38	6.45071
44.6	3.26797
44.82	3.04252
45.04	3.11586
45.26	9.23574
45.48	9.33205
45.7	13.3801
45.92	7.43683
46.14	3.3308
46.36	2.33936
46.58	9.16053
46.8	12.1436
47.02	3.12954
47.24	2.09662
47.46	2.3171
47.68	9.15266
47.9	4.97555
48.12	5.30242
48.34	7.02743
48.56	6.34095
48.78	7.38027
49	1.52044
49.22	0.37337
49.44	5.50687
49.66	8.59385
49.88	9.31486
50.1	1.9625
50.32	5.08341
50.54	11.0283
50.76	3.11322
50.98	1.91205
51.2	0.02459
51.42	8.03992
51.64	6.37272
51.86	11.411
52.08	3.38576
52.3	6.46672
52.52	2.73021
52.74	13.955
52.96	5.80649
53.18	8.74624
53.4	3.75887
53.62	8.72327
53.84	3.35351
54.06	9.41932
54.28	3.61262
54.5	8.73175
54.72	1.92173
54.94	3.32511
55.16	3.51131
55.38	6.75518
55.6	10.9705
55.82	6.42192
56.04	4.59882
56.26	6.51216
56.48	14.5063
56.7	9.60582
56.92	3.55083
57.14	0.481676
57.36	3.98773
57.58	2.07379
57.8	4.21356
58.02	9.24201
58.24	1.93152
58.46	12.9579
58.68	4.41157
58.9	11.528
59.12	2.4474
59.34	4.62024
59.56	3.80595
59.78	2.9993
60	9.01412
60.22	4.89749
60.44	1.08026
60.66	3.99484
60.88	2.99572
61.1	1.8057
61.32	12.7866
61.54	3.98928
61.76	6.04876
61.98	7.04431
62.2	3.89172
62.42	10.9172
62.64	9.2278
62.86	5.39808
63.08	8.44448
63.3	3.50941
63.52	5.5511
63.74	1.70753
63.96	5.71736
64.18	4.59079
64.4	5.74733
64.62	5.79828
64.84	4.70787
65.06	1.58521
65.28	0.512917
65.5	5.5707
65.72	3.75422
65.94	6.76735
66.16	8.92183
66.38	1.09493
66.6	5.17121
66.82	0.759669
67.04	4.42082
67.26	10.4991
67.48	5.89098
67.7	3.01739
67.92	8.03451
68.14	5.90619
68.36	7.79987
68.58	1.34375
68.8	10.4169
69.02	4.43965
69.24	5.3982
69.46	6.44318
69.68	7.34686
69.9	1.42381
70.12	11.3209
70.34	0.412477
70.56	8.48138
70.78	0.528468
71	3.57757
71.22	10.5609
71.44	7.66451
71.66	3.75156
71.88	3.77039
72.1	2.76285
72.32	4.59552
72.54	1.62072
72.76	2.17318
72.98	5.97257
73.2	8.97571
73.42	1.09829
73.64	4.11285
73.86	3.18228
74.08	10.9638
74.3	5.02332
74.52	8.9423
74.74	6.92462
74.96	3.12771
75.18	4.91698
75.4	1.17051
75.62	2.9494
75.84	4.84195
76.06	4.89228
76.28	4.74117
76.5	6.65052
76.72	3.73353
76.94	6.82562
77.16	1.81801
77.38	10.5795
77.6	8.67037
77.82	5.68836
78.04	4.55467
78.26	7.50183
78.48	8.42416
78.7	4.65388
78.92	1.31899
79.14	9.60289
79.36	3.52619
79.58	3.86243
79.8	1.9668
80.02	1.87931
80.24	9.90537
80.46	3.04836
80.68	5.26738
80.9	6.27653
81.12	11.1831
81.34	0.287633
81.56	0.78239
81.78	4.21403
82	5.89269
82.22	2.81194
82.44	2.04768
82.66	0.931762
82.88	6.04283
83.1	6.92078
83.32	3.03289
83.54	4.23977
83.76	5.15161
83.98	7.19111
84.2	0.37782
84.42	9.45266
84.64	0.50443
84.86	2.43108
85.08	5.40081
85.3	4.20118
85.52	5.23674
85.74	1.06324
85.96	2.80753
86.18	1.89256
86.4	7.86314
86.62	9.8699
86.84	3.00272
87.06	7.0703
87.28	8.9683
87.5	6.05617
87.72	1.14216
87.94	2.13751
88.16	4.63676
88.38	5.74572
88.6	1.65853
88.82	7.69626
89.04	0.475054
89.26	3.63435
89.48	5.81235
89.7	0.775168
89.92	1.59102
