Measurement: Powder, Xray Data XY Processed
Mineral: Brassite
Rruff sample: R060042
Ideal chemistry: Mg(As^5+^O_3_OH)4H_2_O
Locality: Bohemia Region, Svornost mine, Jachymov, Czech Republic
Source: University of Arizona Mineral Museum
Description: White powder associated with pharmacolite, R050537
Diffraction sample description: Powder
Measured chemistry: Mg_1.00_(As_1.00_O_3_OH)Â·4H_2_O
Cell parameters: a: 7.4796(6) b: 10.8935(7) c: 16.594(1) alpha: 90 beta: 90 gamma: 90 volume: 1352.0(1) crystal system: orthorhombic
x	intensity
5	0
5.22	17.9774
5.44	7.99367
5.66	8.88268
5.88	3.36768
6.1	16.6358
6.32	1.63298
6.54	7.44124
6.76	6.65538
6.98	2.83393
7.2	7.94244
7.42	1.06114
7.64	14.8511
7.86	2.09774
8.08	17.9615
8.3	14.3413
8.52	27.8124
8.74	15.8656
8.96	1.11833
9.18	14.2447
9.4	14.728
9.62	4.12033
9.84	0.874947
10.06	5.49865
10.28	8.44026
10.5	5.07664
10.72	58.3695
10.94	17.103
11.16	2.38241
11.38	11.6119
11.6	5.25848
11.82	6.11782
12.04	6.3083
12.26	0.836884
12.48	6.25537
12.7	10.3258
12.92	14.6672
13.14	7.69894
13.36	3.74405
13.58	0.926724
13.8	1.06959
14.02	9.06191
14.24	11.9473
14.46	12.6285
14.68	5.51707
14.9	4.89422
15.12	5.40214
15.34	23.9621
15.56	0.296576
15.78	1.82791
16	104.311
16.22	21.6598
16.44	8.11974
16.66	1.69663
16.88	0.188074
17.1	10.46
17.32	3.99045
17.54	7.77823
17.76	16.5591
17.98	1058.25
18.2	37.787
18.42	3.56619
18.64	4.49456
18.86	0.392162
19.08	4.0369
19.3	18.609
19.52	127.68
19.74	5.91694
19.96	10.2571
20.18	1.97371
20.4	1.54534
20.62	1.51517
20.84	5.50364
21.06	10.6643
21.28	12.7461
21.5	291.745
21.72	21.2208
21.94	9.93951
22.16	0.994616
22.38	2.66726
22.6	2.68668
22.82	7.8061
23.04	88.0456
23.26	3.16758
23.48	16.1365
23.7	11.8421
23.92	71.8748
24.14	0.082952
24.36	18.0998
24.58	17.2768
24.8	10.3326
25.02	9.55012
25.24	8.96305
25.46	13.1415
25.68	6.2562
25.9	102.78
26.12	17.3923
26.34	1.93167
26.56	6.77196
26.78	5.17668
27	36.3433
27.22	18.4173
27.44	4.61792
27.66	22.9618
27.88	271.644
28.1	15.9732
28.32	18.6241
28.54	11.0923
28.76	11.5389
28.98	182.317
29.2	28.5054
29.42	104.764
29.64	45.2861
29.86	2.76588
30.08	9.66621
30.3	22.6866
30.52	14.328
30.74	32.8705
30.96	18.8271
31.18	6.35586
31.4	6.61491
31.62	25.2972
31.84	4.2179
32.06	4.85299
32.28	120.222
32.5	3.49302
32.72	0.024956
32.94	9.19523
33.16	3.54576
33.38	54.7341
33.6	5.7137
33.82	28.7244
34.04	11.4994
34.26	5.51074
34.48	7.18863
34.7	35.1083
34.92	29.0688
35.14	18.0053
35.36	1.88182
35.58	38.4218
35.8	17.0377
36.02	2.67829
36.24	26.2801
36.46	104.847
36.68	1.54235
36.9	23.0641
37.12	10.9316
37.34	20.6813
37.56	9.11955
37.78	18.6621
38	6.47681
38.22	15.1034
38.44	5.26851
38.66	125.977
38.88	26.4654
39.1	6.86407
39.32	10.7355
39.54	8.05012
39.76	2.60236
39.98	13.5107
40.2	21.6857
40.42	5.63129
40.64	18.5642
40.86	11.4757
41.08	10.9515
41.3	9.00429
41.52	15.9351
41.74	4.60771
41.96	5.22989
42.18	0.799698
42.4	0.315727
42.62	9.62111
42.84	4.87332
43.06	7.53685
43.28	18.9898
43.5	1.87389
43.72	45.5829
43.94	4.92735
44.16	8.78561
44.38	14.6927
44.6	8.91686
44.82	3.44556
45.04	0.770786
45.26	11.7959
45.48	56.2152
45.7	5.42978
45.92	3.84236
46.14	14.8905
46.36	18.9499
46.58	4.38783
46.8	12.9174
47.02	11.1478
47.24	5.10712
47.46	11.3548
47.68	9.57773
47.9	9.66367
48.12	1.35929
48.34	7.63084
48.56	9.39449
48.78	26.2984
49	8.88435
49.22	10.1057
49.44	13.4533
49.66	7.36099
49.88	13.7443
50.1	22.1092
50.32	8.6008
50.54	2.81473
50.76	7.86754
50.98	13.2616
51.2	20.7813
51.42	0.431143
51.64	20.9757
51.86	21.2951
52.08	4.86694
52.3	39.0216
52.52	39.1798
52.74	7.09706
52.96	20.6167
53.18	40.5336
53.4	21.05
53.62	9.67331
53.84	8.38414
54.06	10.2871
54.28	2.95444
54.5	7.13264
54.72	19.6173
54.94	1.03066
55.16	1.0914
55.38	13.9932
55.6	4.54338
55.82	15.6094
56.04	0.345476
56.26	9.86343
56.48	19.2337
56.7	30.8075
56.92	8.05616
57.14	19.5376
57.36	22.1468
57.58	15.9632
57.8	6.87066
58.02	6.7527
58.24	11.5504
58.46	0.850338
58.68	7.95562
58.9	21.0259
59.12	11.7929
59.34	2.81704
59.56	17.0961
59.78	7.33887
60	3.622
60.22	10.7563
60.44	6.07616
60.66	11.0479
60.88	12.179
61.1	40.7124
61.32	12.3723
61.54	7.93735
61.76	12.071
61.98	3.11713
62.2	5.09107
62.42	8.08576
62.64	8.17295
62.86	11.0857
63.08	1.47402
63.3	2.04813
63.52	9.04484
63.74	17.5807
63.96	17.9767
64.18	1.05128
64.4	9.5347
64.62	10.7646
64.84	11.1069
65.06	15.3075
65.28	7.52841
65.5	6.68232
65.72	13.9387
65.94	19.6497
66.16	6.36306
66.38	7.70012
66.6	9.4484
66.82	8.14179
67.04	4.13003
67.26	4.98491
67.48	2.09312
67.7	13.8481
67.92	24.0541
68.14	6.91279
68.36	12.1959
68.58	6.42209
68.8	8.17078
69.02	11.3715
69.24	16.7775
69.46	11.9587
69.68	17.7049
69.9	18.8246
70.12	11.9579
70.34	2.85045
70.56	5.87649
70.78	0.698603
71	2.6212
71.22	18.6349
71.44	9.54014
71.66	11.2253
71.88	4.85488
72.1	7.80519
72.32	6.28986
72.54	14.1446
72.76	4.18152
72.98	10.415
73.2	0.59231
73.42	6.30464
73.64	6.31245
73.86	4.32486
74.08	12.4949
74.3	27.8749
74.52	10.9511
74.74	13.583
74.96	9.88158
75.18	7.78272
75.4	10.5919
75.62	5.57579
75.84	2.48162
76.06	9.93274
76.28	14.0614
76.5	6.16038
76.72	6.70253
76.94	16.4151
77.16	2.23995
77.38	2.27196
77.6	12.6378
77.82	11.0015
78.04	14.1486
78.26	20.3157
78.48	12.9346
78.7	2.08845
78.92	9.29551
79.14	12.8366
79.36	6.98748
79.58	14.4903
79.8	12.2584
80.02	6.4933
80.24	11.4666
80.46	15.5916
80.68	9.71149
80.9	13.9517
81.12	6.02428
81.34	7.08804
81.56	3.77028
81.78	0.357306
82	2.18502
82.22	4.96792
82.44	3.83915
82.66	18.4035
82.88	4.18449
83.1	0.678587
83.32	3.52949
83.54	12.4087
83.76	8.39346
83.98	8.25918
84.2	8.53262
84.42	11.5904
84.64	5.25152
84.86	6.4044
85.08	20.6803
85.3	12.9142
85.52	5.14976
85.74	6.64305
85.96	9.72591
86.18	4.59312
86.4	7.95824
86.62	6.79761
86.84	7.63336
87.06	8.01391
87.28	5.23526
87.5	5.13792
87.72	7.0991
87.94	15.2151
88.16	7.07712
88.38	3.19303
88.6	10.0172
88.82	6.76787
89.04	0.841982
89.26	2.02125
89.48	8.37315
89.7	9.8999
89.92	4.58344
