Measurement: Powder, Xray Data XY Processed
Mineral: Braunite
Rruff sample: R050388
Ideal chemistry: Mn^2+^Mn^3+^_6_SiO_12_
Locality: Langban, Filipstad, Varmland, Sweden
Source: University of Arizona Mineral Museum
Description: Black crystals
Diffraction sample description: Powder
Measured chemistry: (Mn^2+^_0.96_Mg_0.04_)_Î£=1_Mn^3+^_6.00_Si_1.00_O_12_
Cell parameters: a: 9.4266(2) b: 9.4266(2) c: 18.6984(4) alpha: 90. beta: 90. gamma: 90. volume: 1661.58(6) crystal system: tetragonal
x	intensity
5	0
5.22	16.663
5.44	9.786
5.66	29.324
5.88	5.697
6.1	7.374
6.32	13.859
6.54	11.376
6.76	31.387
6.98	26.299
7.2	11.552
7.42	23.781
7.64	9.818
7.86	5.333
8.08	5.257
8.3	2.167
8.52	7.318
8.74	15.653
8.96	17.473
9.18	10.223
9.4	23.881
9.62	9.649
9.84	9.476
10.06	14.43
10.28	3.94
10.5	15.035
10.72	5.28
10.94	0.471
11.16	11.466
11.38	20.22
11.6	8.846
11.82	9.762
12.04	1.676
12.26	13.401
12.48	1.952
12.7	14.659
12.92	16.454
13.14	14.142
13.36	1.442
13.58	21.169
13.8	8.71
14.02	2.448
14.24	3.715
14.46	13.01
14.68	0.367
14.9	7.156
15.12	0.425
15.34	7.231
15.56	7.778
15.78	7.733
16	11.059
16.22	23.612
16.44	17.8
16.66	19.485
16.88	17.177
17.1	9.797
17.32	10.68
17.54	17.769
17.76	3.371
17.98	12.096
18.2	18.614
18.42	10.23
18.64	10.638
18.86	14.769
19.08	3.505
19.3	6.787
19.52	1.022
19.74	5.774
19.96	16.231
20.18	7.198
20.4	15.084
20.62	19.05
20.84	9.73
21.06	20.719
21.28	6.752
21.5	9.318
21.72	17.649
21.94	14.219
22.16	5.83
22.38	1.88
22.6	10.378
22.82	2.183
23.04	1.384
23.26	12.279
23.48	29.601
23.7	18.951
23.92	6.763
24.14	10.748
24.36	2.66
24.58	18.387
24.8	19.935
25.02	23.423
25.24	21.701
25.46	5.442
25.68	30.257
25.9	17.587
26.12	13.565
26.34	13.826
26.56	2.473
26.78	10.149
27	19.934
27.22	14.251
27.44	8.111
27.66	12.161
27.88	14.559
28.1	4.55
28.32	16.308
28.54	15.681
28.76	1.479
28.98	10.745
29.2	5.047
29.42	9.225
29.64	28.198
29.86	17.65
30.08	12.612
30.3	3.918
30.52	6.241
30.74	1.732
30.96	16.888
31.18	15.845
31.4	26.908
31.62	26.183
31.84	16.866
32.06	7.02
32.28	3.225
32.5	10.805
32.72	9.301
32.94	46.64
33.16	318.535
33.38	15.451
33.6	23.431
33.82	9.912
34.04	11.978
34.26	1.078
34.48	10.607
34.7	6.395
34.92	28.355
35.14	22.52
35.36	14.768
35.58	7.086
35.8	28.509
36.02	17.169
36.24	13.251
36.46	7.229
36.68	19.516
36.9	15.341
37.12	12.854
37.34	8.425
37.56	7.626
37.78	19.396
38	14.377
38.22	65.411
38.44	39.14
38.66	34.865
38.88	0.621
39.1	21.677
39.32	12.576
39.54	8.169
39.76	18.264
39.98	29.254
40.2	17.046
40.42	3.575
40.64	10.421
40.86	11.925
41.08	22.359
41.3	0.49
41.52	12.517
41.74	2.588
41.96	50.861
42.18	50.199
42.4	14.038
42.62	10.898
42.84	17.314
43.06	15.59
43.28	2.256
43.5	18.728
43.72	17.195
43.94	1.794
44.16	10.122
44.38	3.453
44.6	16.322
44.82	8.794
45.04	11.416
45.26	1.507
45.48	20.011
45.7	8.937
45.92	3.937
46.14	2.474
46.36	20.312
46.58	9.299
46.8	11.082
47.02	7.825
47.24	15.819
47.46	5.837
47.68	16.994
47.9	22.776
48.12	7.453
48.34	11.196
48.56	72.69
48.78	6.915
49	17.713
49.22	0.103
49.44	1.177
49.66	12.771
49.88	1.778
50.1	15.219
50.32	2.411
50.54	17.249
50.76	21.898
50.98	14.975
51.2	14.955
51.42	2.23
51.64	12.989
51.86	7.604
52.08	1.994
52.3	18.963
52.52	16.648
52.74	23.732
52.96	0.03
53.18	11.662
53.4	1.043
53.62	7.008
53.84	0.439
54.06	0.796
54.28	11.415
54.5	11.412
54.72	19.465
54.94	19.074
55.16	40.976
55.38	207.975
55.6	22.233
55.82	11.542
56.04	3.997
56.26	5.664
56.48	3.257
56.7	8.634
56.92	20.875
57.14	12.871
57.36	1.331
57.58	24.092
57.8	23.786
58.02	4.602
58.24	0.896
58.46	3.951
58.68	4.962
58.9	8.824
59.12	9.72
59.34	2.675
59.56	17.823
59.78	15.616
60	18.134
60.22	19.871
60.44	2.719
60.66	2.409
60.88	3.652
61.1	10.142
61.32	17.035
61.54	24.075
61.76	14.3
61.98	15.403
62.2	18.422
62.42	15.809
62.64	4.979
62.86	10.828
63.08	2.385
63.3	2.213
63.52	2.876
63.74	0.294
63.96	16.29
64.18	15.697
64.4	2.652
64.62	2.484
64.84	3.288
65.06	19.72
65.28	7.44
65.5	1.163
65.72	44.732
65.94	69.067
66.16	26.476
66.38	57.349
66.6	4.376
66.82	2.759
67.04	21.843
67.26	23.644
67.48	9.06
67.7	18.57
67.92	12.533
68.14	1.375
68.36	1.795
68.58	16.892
68.8	11.858
69.02	6.085
69.24	28.249
69.46	29.236
69.68	7.909
69.9	8.492
70.12	2.005
70.34	21.041
70.56	5.034
70.78	13.225
71	18.152
71.22	14.523
71.44	12.689
71.66	18.015
71.88	18.407
72.1	0.946
72.32	19.447
72.54	0.354
72.76	11.997
72.98	3.336
73.2	15.773
73.42	11.932
73.64	19.861
73.86	30.075
74.08	1.44
74.3	19.336
74.52	14.535
74.74	20.408
74.96	1.651
75.18	6.81
75.4	2.378
75.62	0.186
75.84	15.097
76.06	21.389
76.28	18.23
76.5	2.737
76.72	27.173
76.94	1.721
77.16	3.782
77.38	3.778
77.6	16.813
77.82	24.064
78.04	8.176
78.26	16.251
78.48	14.489
78.7	9.668
78.92	16.393
79.14	20.291
79.36	20.494
79.58	0.066
79.8	12.699
80.02	12.114
80.24	7.976
80.46	21.645
80.68	14.034
80.9	0.679
81.12	1.347
81.34	14.28
81.56	14.765
81.78	10.102
82	6.002
82.22	5.105
82.44	29.546
82.66	15.108
82.88	13.39
83.1	11.304
83.32	1.177
83.54	3.767
83.76	1.934
83.98	3.645
84.2	12.838
84.42	10.372
84.64	9.485
84.86	9.217
85.08	22.474
85.3	27.776
85.52	7.584
85.74	13.418
85.96	17.084
86.18	3.67
86.4	16.409
86.62	1.122
86.84	0.547
87.06	9.781
87.28	0.025
87.5	7.226
87.72	8.813
87.94	11.456
88.16	18.276
88.38	11.425
88.6	25.276
88.82	25.365
89.04	11.972
89.26	24.806
89.48	7.726
89.7	6.869
89.92	13.55
