Measurement: Powder, Xray Data XY Processed
Mineral: Braunite
Rruff sample: R090057
Ideal chemistry: Mn^2+^Mn^3+^_6_SiO_12_
Locality: N'Chwaning III Mine, N'Chwaning Mines, Kalahari manganese field, Northern Cape Province, South Africa
Source: Marshall Sussman
Description: Blocky lustrous black crystals on fine-grained matrix of the same material. Note that this is braunite II, as defined in de Villiers (1980)
Diffraction sample description: Powder
Cell parameters: a: 9.431(1) b: 9.431(1) c: 37.80(1) alpha: 90 beta: 90 gamma: 90 volume: 3361.9(8) crystal system: tetragonal
x	intensity
5	0
5.22	2.71674
5.44	31.1375
5.66	20.7811
5.88	14.8157
6.1	6.52439
6.32	6.50989
6.54	23.3206
6.76	12.3799
6.98	4.00319
7.2	14.8661
7.42	18.7836
7.64	18.3863
7.86	19.3302
8.08	17.0111
8.3	18.0924
8.52	15.1205
8.74	30.3419
8.96	21.5928
9.18	33.8553
9.4	20.375
9.62	14.6746
9.84	1.62317
10.06	3.11172
10.28	12.5558
10.5	5.02022
10.72	27.3233
10.94	22.1766
11.16	15.0321
11.38	15.9788
11.6	6.68405
11.82	3.79313
12.04	13.3626
12.26	23.3915
12.48	25.7085
12.7	34.4813
12.92	14.9563
13.14	45.9643
13.36	26.8782
13.58	30.9247
13.8	4.12883
14.02	25.9531
14.24	31.7528
14.46	8.47968
14.68	50.0429
14.9	38.9198
15.12	5.10297
15.34	9.95711
15.56	4.58897
15.78	10.3427
16	21.598
16.22	7.11472
16.44	15.5191
16.66	15.4759
16.88	23.5134
17.1	13.9229
17.32	0.839668
17.54	21.7466
17.76	3.20733
17.98	21.1349
18.2	24.2807
18.42	18.8938
18.64	0.828621
18.86	46.0554
19.08	33.7051
19.3	29.8329
19.52	25.8812
19.74	7.62162
19.96	31.0452
20.18	18.3667
20.4	23.6498
20.62	27.3526
20.84	27.5969
21.06	13.2891
21.28	15.0215
21.5	7.71948
21.72	27.8906
21.94	35.7996
22.16	31.9376
22.38	6.88453
22.6	14.3053
22.82	37.9276
23.04	34.7283
23.26	24.7999
23.48	32.1395
23.7	8.84011
23.92	17.1888
24.14	8.68059
24.36	25.5456
24.58	20.5934
24.8	10.9553
25.02	5.2195
25.24	0.590233
25.46	9.12167
25.68	17.109
25.9	12.3068
26.12	26.5568
26.34	20.4292
26.56	2.8789
26.78	18.775
27	9.7693
27.22	17.7274
27.44	11.6985
27.66	24.3585
27.88	14.8306
28.1	21.4031
28.32	19.4961
28.54	7.91618
28.76	4.25128
28.98	16.6832
29.2	1.6834
29.42	15.4372
29.64	44.8452
29.86	14.9644
30.08	2.07972
30.3	10.4818
30.52	18.7745
30.74	22.3072
30.96	5.95816
31.18	5.13731
31.4	19.1247
31.62	2.08353
31.84	7.22047
32.06	41.3891
32.28	29.0616
32.5	29.1995
32.72	29.229
32.94	697.693
33.16	72.4865
33.38	14.4755
33.6	13.4053
33.82	0.563858
34.04	28.0082
34.26	31.5416
34.48	13.9756
34.7	39.4551
34.92	37.913
35.14	21.7499
35.36	9.6743
35.58	30.2264
35.8	21.8466
36.02	6.01593
36.24	28.4889
36.46	11.617
36.68	18.861
36.9	28.8492
37.12	42.7158
37.34	35.8281
37.56	15.5562
37.78	21.3995
38	26.8626
38.22	121.811
38.44	24.7182
38.66	2.82036
38.88	25.1665
39.1	45.9153
39.32	38.3762
39.54	35.4448
39.76	40.3119
39.98	25.6677
40.2	27.2433
40.42	23.3507
40.64	40.5052
40.86	24.2084
41.08	21.0703
41.3	3.6218
41.52	19.1231
41.74	24.5156
41.96	3.03499
42.18	11.0029
42.4	4.50259
42.62	27.4812
42.84	2.38894
43.06	0.064415
43.28	22.9581
43.5	27.5138
43.72	26.8408
43.94	28.459
44.16	15.3461
44.38	10.0388
44.6	5.92073
44.82	1.91611
45.04	32.5836
45.26	18.5859
45.48	37.0639
45.7	24.6594
45.92	4.8534
46.14	13.9738
46.36	16.7238
46.58	6.73216
46.8	26.9376
47.02	22.1713
47.24	41.6465
47.46	22.3836
47.68	28.0301
47.9	9.58828
48.12	25.9584
48.34	4.26236
48.56	31.1574
48.78	3.81097
49	35.5777
49.22	25.0055
49.44	36.9698
49.66	17.8026
49.88	13.752
50.1	16.1174
50.32	17.337
50.54	37.1861
50.76	29.975
50.98	33.7053
51.2	11.5465
51.42	20.8257
51.64	16.7342
51.86	10.1778
52.08	30.444
52.3	27.4315
52.52	7.20888
52.74	28.1048
52.96	16.6635
53.18	16.1114
53.4	7.59291
53.62	12.4846
53.84	28.8571
54.06	3.65112
54.28	12.6996
54.5	2.26318
54.72	22.918
54.94	38.8087
55.16	179.847
55.38	58.3787
55.6	16.4335
55.82	21.4258
56.04	12.7909
56.26	9.12756
56.48	4.80895
56.7	1.32665
56.92	20.622
57.14	39.7852
57.36	23.5301
57.58	20.0516
57.8	19.1537
58.02	11.0926
58.24	11.878
58.46	35.6548
58.68	41.4967
58.9	35.6419
59.12	13.6035
59.34	7.48025
59.56	28.8321
59.78	0.741516
60	21.816
60.22	36.6542
60.44	19.9684
60.66	32.321
60.88	24.7335
61.1	19.6975
61.32	4.28184
61.54	20.6164
61.76	19.3582
61.98	29.073
62.2	32.6951
62.42	17.2032
62.64	5.73717
62.86	13.7405
63.08	8.45752
63.3	7.01502
63.52	19.1819
63.74	12.1045
63.96	12.5067
64.18	27.6968
64.4	23.4717
64.62	19.1803
64.84	16.8182
65.06	4.60168
65.28	12.9444
65.5	23.7879
65.72	84.6905
65.94	50.9895
66.16	28.4917
66.38	10.9979
66.6	34.0825
66.82	11.1612
67.04	10.6455
67.26	2.24705
67.48	8.69119
67.7	27.0483
67.92	6.59547
68.14	12.6233
68.36	12.9515
68.58	12.4462
68.8	8.28122
69.02	17.4173
69.24	26.1565
69.46	19.6928
69.68	13.5256
69.9	29.2912
70.12	25.0998
70.34	20.0485
70.56	6.99677
70.78	16.1861
71	12.0229
71.22	31.7104
71.44	4.42982
71.66	12.6661
71.88	21.1123
72.1	16.1672
72.32	22.4757
72.54	14.5361
72.76	5.70434
72.98	13.2306
73.2	22.8622
73.42	19.0932
73.64	5.39473
73.86	11.1783
74.08	1.20815
74.3	6.19375
74.52	7.00762
74.74	11.0912
74.96	4.08037
75.18	16.9791
75.4	6.53919
75.62	19.294
75.84	6.9798
76.06	10.6549
76.28	30.2299
76.5	22.3977
76.72	11.2668
76.94	10.5276
77.16	27.2987
77.38	1.98862
77.6	5.14538
77.82	21.0164
78.04	6.88155
78.26	1.05035
78.48	27.2535
78.7	26.1356
78.92	12.124
79.14	29.1635
79.36	37.5458
79.58	10.6644
79.8	8.97932
80.02	13.6829
80.24	18.6377
80.46	20.5594
80.68	4.51482
80.9	26.4952
81.12	4.0859
81.34	25.9195
81.56	27.2054
81.78	10.1084
82	28.1711
82.22	8.78064
82.44	22.1915
82.66	6.89731
82.88	7.42117
83.1	39.0919
83.32	2.27925
83.54	26.1207
83.76	5.90435
83.98	6.7148
84.2	11.9735
84.42	12.3755
84.64	28.053
84.86	23.1513
85.08	38.8627
85.3	17.1874
85.52	29.3985
85.74	21.7478
85.96	19.3015
86.18	21.2837
86.4	15.0447
86.62	22.1607
86.84	32.3482
87.06	11.4638
87.28	27.2873
87.5	17.1445
87.72	26.0179
87.94	11.5523
88.16	23.2124
88.38	7.95032
88.6	33.8381
88.82	23.2827
89.04	33.0963
89.26	27.3207
89.48	28.1939
89.7	38.9332
89.92	7.89115
