Measurement: Powder, Xray Data XY Processed
Mineral: Brazilianite
Rruff sample: R050319
Ideal chemistry: NaAl_3_(PO_4_)_2_(OH)_4_
Locality: Minas Gerais, Brazil
Source: American Museum of Natural History
Description: Pale green fragment
Diffraction sample description: Powder
Measured chemistry: Na_1.00_Al_3.00_(PO_4_)_2_(OH)_4_
Cell parameters: a: 11.2282(7) b: 10.1400(4) c: 7.0939(4) alpha: 90 beta: 97.368(4) gamma: 90 volume: 800.99(5) crystal system: monoclinic
x	intensity
5	0
5.22	6.66286
5.44	19.0625
5.66	17.2001
5.88	9.55641
6.1	18.1073
6.32	10.9027
6.54	6.54487
6.76	10.3723
6.98	7.29408
7.2	4.08082
7.42	16.4454
7.64	0.36162
7.86	10.6886
8.08	10.2485
8.3	1.77036
8.52	6.12119
8.74	5.4804
8.96	7.7335
9.18	7.83037
9.4	3.11359
9.62	8.20696
9.84	7.5631
10.06	9.60693
10.28	12.6625
10.5	5.76946
10.72	6.05583
10.94	9.26365
11.16	11.3992
11.38	6.52607
11.6	6.35362
11.82	8.6451
12.04	8.92755
12.26	11.1347
12.48	8.10368
12.7	6.70328
12.92	9.44271
13.14	0.132999
13.36	16.0291
13.58	5.2129
13.8	9.78754
14.02	9.4375
14.24	0.872396
14.46	6.26719
14.68	2.46673
14.9	3.00361
15.12	2.1751
15.34	302.44
15.56	12.0347
15.78	18.4886
16	45.8338
16.22	3.73758
16.44	9.66034
16.66	3.63292
16.88	10.6809
17.1	6.82235
17.32	26.4183
17.54	860.754
17.76	10.3009
17.98	27.621
18.2	7.93814
18.42	10.3721
18.64	1.88837
18.86	2.4273
19.08	14.8198
19.3	46.2822
19.52	12.3195
19.74	13.5044
19.96	1.52121
20.18	9.788
20.4	1.17714
20.62	9.96078
20.84	2.95267
21.06	14.9814
21.28	3.10899
21.5	2.89182
21.72	6.90039
21.94	9.82058
22.16	4.59292
22.38	0.386065
22.6	5.90188
22.82	9.83227
23.04	0.144771
23.26	35.4815
23.48	10.1343
23.7	56.2919
23.92	8.26063
24.14	5.94093
24.36	2.08156
24.58	10.8777
24.8	3.01299
25.02	6.96403
25.24	10.8234
25.46	7.71044
25.68	16.35
25.9	4.00642
26.12	6.55891
26.34	7.31281
26.56	2.09417
26.78	5.33994
27	14.1705
27.22	76.8951
27.44	6.784
27.66	6.12808
27.88	13.1149
28.1	18.5462
28.32	22.5421
28.54	5.74229
28.76	9.76588
28.98	11.5329
29.2	1.22678
29.42	10.2253
29.64	9.46616
29.86	49.1299
30.08	70.3374
30.3	7.23931
30.52	4.48393
30.74	2.97287
30.96	48.5723
31.18	156.434
31.4	14.2007
31.62	3.28452
31.84	18.4172
32.06	0.244732
32.28	1.66567
32.5	4.64661
32.72	226.43
32.94	52.9526
33.16	15.2452
33.38	321.811
33.6	19.155
33.82	0.028767
34.04	1.65321
34.26	34.3233
34.48	13.2472
34.7	11.9109
34.92	6.52222
35.14	2.97963
35.36	5.10508
35.58	4.21598
35.8	6.06836
36.02	2.92964
36.24	9.41462
36.46	50.27
36.68	3.17014
36.9	22.4577
37.12	35.4232
37.34	33.31
37.56	7.52426
37.78	8.13379
38	5.50351
38.22	9.79988
38.44	2.08773
38.66	20.7962
38.88	2.87258
39.1	8.2894
39.32	15.7615
39.54	9.65543
39.76	7.7236
39.98	0.992639
40.2	6.5249
40.42	6.28985
40.64	5.10433
40.86	8.94096
41.08	2.5528
41.3	20.9997
41.52	57.7216
41.74	20.6944
41.96	22.9599
42.18	0.917989
42.4	6.93617
42.62	15.0296
42.84	18.9344
43.06	1.23395
43.28	8.49379
43.5	3.9922
43.72	0.621449
43.94	11.7195
44.16	86.0141
44.38	14.1636
44.6	3.60283
44.82	9.32691
45.04	6.24949
45.26	38.4249
45.48	9.68128
45.7	12.7839
45.92	52.0451
46.14	5.27106
46.36	0.87473
46.58	4.07277
46.8	2.3537
47.02	120.488
47.24	12.18
47.46	2.70908
47.68	13.7712
47.9	1.85823
48.12	9.06413
48.34	13.1475
48.56	10.4891
48.78	11.2544
49	41.9912
49.22	11.3964
49.44	22.2616
49.66	2.51823
49.88	3.61377
50.1	22.0076
50.32	0.513179
50.54	6.8173
50.76	15.2418
50.98	1.09405
51.2	4.19458
51.42	12.203
51.64	12.3213
51.86	17.152
52.08	20.7784
52.3	10.5208
52.52	9.87039
52.74	4.54008
52.96	6.11029
53.18	0.079596
53.4	37.0814
53.62	10.3047
53.84	14.3093
54.06	5.47706
54.28	22.4954
54.5	3.95981
54.72	11.0396
54.94	10.105
55.16	1.82509
55.38	9.245
55.6	2.13968
55.82	15.1018
56.04	30.1426
56.26	9.16278
56.48	10.9768
56.7	6.03068
56.92	4.25432
57.14	5.38074
57.36	1.41556
57.58	3.40872
57.8	7.44563
58.02	0.580129
58.24	4.22544
58.46	16.6447
58.68	13.8194
58.9	5.53932
59.12	12.9049
59.34	15.3918
59.56	10.3552
59.78	6.98403
60	6.5635
60.22	2.18869
60.44	2.08324
60.66	9.71617
60.88	10.872
61.1	7.50361
61.32	17.7754
61.54	5.18533
61.76	21.789
61.98	11.6733
62.2	17.2104
62.42	5.24842
62.64	1.68826
62.86	6.05415
63.08	4.33309
63.3	10.4525
63.52	9.44657
63.74	16.1988
63.96	14.8415
64.18	13.2806
64.4	15.6544
64.62	19.4164
64.84	7.72699
65.06	10.6251
65.28	4.27787
65.5	2.34608
65.72	2.47094
65.94	12.8261
66.16	2.05781
66.38	3.33141
66.6	2.97994
66.82	5.82194
67.04	5.87639
67.26	12.14
67.48	0.177776
67.7	9.4849
67.92	10.4182
68.14	6.36864
68.36	5.42039
68.58	4.52921
68.8	26.6065
69.02	10.3141
69.24	3.3519
69.46	7.45706
69.68	6.01946
69.9	1.56803
70.12	3.11467
70.34	13.2946
70.56	13.1778
70.78	1.29035
71	9.26396
71.22	4.14167
71.44	5.89298
71.66	7.79071
71.88	4.53523
72.1	14.2048
72.32	13.8016
72.54	7.82785
72.76	9.416
72.98	11.5455
73.2	2.21464
73.42	0.676207
73.64	4.96805
73.86	7.45897
74.08	13.8502
74.3	0.006411
74.52	3.0355
74.74	3.8748
74.96	6.75884
75.18	4.16761
75.4	5.16054
75.62	7.49065
75.84	13.0756
76.06	6.84614
76.28	0.568375
76.5	3.09368
76.72	3.23969
76.94	0.574939
77.16	15.4412
77.38	9.64463
77.6	2.79255
77.82	10.8493
78.04	5.32335
78.26	6.77448
78.48	0.560749
78.7	5.7522
78.92	12.0405
79.14	7.14423
79.36	1.17466
79.58	5.21133
79.8	0.19466
80.02	1.25964
80.24	7.2334
80.46	8.11604
80.68	0.086335
80.9	11.6913
81.12	15.623
81.34	4.69626
81.56	3.72046
81.78	1.09128
82	3.11471
82.22	6.34759
82.44	3.45898
82.66	3.43188
82.88	2.32178
83.1	4.13386
83.32	5.88647
83.54	9.57711
83.76	11.4858
83.98	7.338
84.2	11.7997
84.42	14.9773
84.64	9.07725
84.86	2.00505
85.08	2.04925
85.3	5.03537
85.52	7.17193
85.74	3.35067
85.96	6.46077
86.18	7.62873
86.4	4.06594
86.62	10.1786
86.84	23.1384
87.06	21.9829
87.28	1.79132
87.5	5.36488
87.72	9.56508
87.94	7.90132
88.16	8.06137
88.38	1.28225
88.6	6.38843
88.82	5.3232
89.04	5.63415
89.26	5.69448
89.48	11.7575
89.7	7.81777
89.92	5.66466
