Measurement: Powder, Xray Data XY Processed
Mineral: Brazilianite
Rruff sample: R050504
Ideal chemistry: NaAl_3_(PO_4_)_2_(OH)_4_
Locality: CÃ³rrego Frio, Minas Gerais, Brazil
Source: Marcus Origlieri
Description: Yellowish green fragment
Diffraction sample description: Powder
Measured chemistry: Na_1.00_Al_3.00_(P_1.00_O_4_)_2_(OH)_4_
Cell parameters: a: 11.2325(3) b: 10.1443(2) c: 7.0972(2) alpha: 90. beta: 97.369(2) gamma: 90. volume: 802.02(2) crystal system: monoclinic
x	intensity
5	0
5.22	7.86585
5.44	8.92169
5.66	12.9164
5.88	7.47651
6.1	2.84817
6.32	16.3646
6.54	3.84461
6.76	3.61607
6.98	15.4151
7.2	10.4331
7.42	6.30841
7.64	14.1571
7.86	7.85562
8.08	2.58448
8.3	2.4183
8.52	9.069
8.74	4.67601
8.96	6.9838
9.18	5.43494
9.4	7.65005
9.62	2.84028
9.84	1.98342
10.06	7.15525
10.28	10.4078
10.5	4.65992
10.72	6.6688
10.94	5.78062
11.16	6.89184
11.38	1.06813
11.6	5.37935
11.82	11.4185
12.04	3.57755
12.26	7.9177
12.48	4.10695
12.7	4.10185
12.92	2.13382
13.14	3.20266
13.36	4.22111
13.58	0.894229
13.8	1.39608
14.02	4.33001
14.24	0.144128
14.46	6.71591
14.68	0.561982
14.9	1.81973
15.12	7.81923
15.34	88.5225
15.56	6.42594
15.78	1.90901
16	53.6502
16.22	1.08743
16.44	5.54768
16.66	5.3397
16.88	0.852304
17.1	1.85603
17.32	13.0444
17.54	2046.44
17.76	35.6476
17.98	2.60175
18.2	11.9174
18.42	3.61198
18.64	0.891661
18.86	0.88432
19.08	2.32332
19.3	46.772
19.52	9.4371
19.74	5.70906
19.96	4.64603
20.18	5.79709
20.4	4.01607
20.62	1.34348
20.84	0.702937
21.06	8.53676
21.28	6.26347
21.5	8.43861
21.72	2.49469
21.94	6.20883
22.16	4.09074
22.38	4.07785
22.6	6.06983
22.82	7.04805
23.04	4.04315
23.26	10.3417
23.48	12.1367
23.7	21.1535
23.92	9.13164
24.14	4.2109
24.36	6.27897
24.58	0.329036
24.8	1.39698
25.02	4.45683
25.24	3.577
25.46	7.77388
25.68	12.555
25.9	1.33626
26.12	3.18822
26.34	1.20969
26.56	5.07087
26.78	0.054676
27	2.94994
27.22	48.8135
27.44	9.00018
27.66	9.00341
27.88	4.84364
28.1	10.6807
28.32	27.5608
28.54	1.46775
28.76	3.22852
28.98	1.03064
29.2	2.77074
29.42	6.90779
29.64	6.97534
29.86	7.35698
30.08	47.0906
30.3	8.87494
30.52	7.81847
30.74	3.63249
30.96	31.5882
31.18	173.8
31.4	8.65539
31.62	0.43973
31.84	7.84505
32.06	3.49933
32.28	8.33219
32.5	0.189082
32.72	116.703
32.94	65.9067
33.16	6.95052
33.38	141.959
33.6	18.7721
33.82	7.29108
34.04	6.91725
34.26	11.3316
34.48	17.9595
34.7	3.62882
34.92	0.054296
35.14	8.29734
35.36	7.16745
35.58	0.275058
35.8	3.2456
36.02	2.18535
36.24	2.80144
36.46	60.5722
36.68	14.439
36.9	18.1891
37.12	12.8234
37.34	16.7717
37.56	2.76783
37.78	4.91223
38	2.05856
38.22	8.13748
38.44	4.51656
38.66	7.84071
38.88	2.85383
39.1	5.04251
39.32	11.8622
39.54	0.100209
39.76	0.875012
39.98	0.918326
40.2	2.8934
40.42	4.74329
40.64	5.67094
40.86	5.30874
41.08	2.18472
41.3	9.46033
41.52	20.2907
41.74	11.2445
41.96	14.4309
42.18	1.54087
42.4	0.482811
42.62	1.977
42.84	11.8468
43.06	2.68245
43.28	0.455748
43.5	0.898413
43.72	3.38885
43.94	5.05084
44.16	47.6273
44.38	21.2048
44.6	7.01933
44.82	8.62758
45.04	5.04356
45.26	26.4043
45.48	18.8727
45.7	0.59312
45.92	54.6824
46.14	10.12
46.36	8.51644
46.58	2.08244
46.8	5.24988
47.02	96.9003
47.24	12.268
47.46	7.43644
47.68	12.5295
47.9	5.04285
48.12	9.13932
48.34	15.1624
48.56	1.30191
48.78	0.38072
49	32.358
49.22	12.3304
49.44	5.0869
49.66	1.01411
49.88	6.11951
50.1	12.2089
50.32	5.59227
50.54	8.69448
50.76	0.715615
50.98	5.49242
51.2	1.35226
51.42	0.687543
51.64	1.4382
51.86	8.38899
52.08	8.27494
52.3	12.0831
52.52	20.0305
52.74	13.5659
52.96	0.401183
53.18	9.32777
53.4	26.5612
53.62	1.25467
53.84	1.70261
54.06	8.69993
54.28	29.663
54.5	6.93302
54.72	0.923663
54.94	8.56758
55.16	11.6107
55.38	2.63852
55.6	3.31615
55.82	10.4151
56.04	44.7095
56.26	5.15755
56.48	16.9992
56.7	13.0447
56.92	3.9485
57.14	1.06893
57.36	0.834465
57.58	1.19989
57.8	4.30539
58.02	6.2962
58.24	5.44915
58.46	12.4718
58.68	10.3065
58.9	6.18074
59.12	11.8364
59.34	19.5604
59.56	4.33475
59.78	2.01658
60	5.89294
60.22	6.64481
60.44	12.2968
60.66	8.83693
60.88	13.428
61.1	5.09201
61.32	13.1785
61.54	3.39639
61.76	10.3151
61.98	2.65406
62.2	7.20261
62.42	2.57594
62.64	1.71653
62.86	3.0818
63.08	1.98233
63.3	2.02418
63.52	4.99079
63.74	8.86135
63.96	1.61198
64.18	10.9
64.4	10.046
64.62	14.7426
64.84	10.5164
65.06	10.7779
65.28	1.16075
65.5	4.32457
65.72	2.44291
65.94	6.59477
66.16	8.76289
66.38	2.08801
66.6	11.3525
66.82	9.99494
67.04	3.13628
67.26	9.02954
67.48	14.7609
67.7	9.38145
67.92	1.2615
68.14	0.827857
68.36	4.37724
68.58	7.34954
68.8	10.1346
69.02	7.88844
69.24	7.94859
69.46	5.91269
69.68	14.2119
69.9	2.35938
70.12	0.293372
70.34	6.79838
70.56	8.88201
70.78	2.24673
71	5.88173
71.22	4.89097
71.44	2.84904
71.66	6.85299
71.88	3.81342
72.1	3.61387
72.32	6.94935
72.54	9.84416
72.76	5.9407
72.98	24.1985
73.2	10.4278
73.42	8.37599
73.64	2.5118
73.86	1.59553
74.08	2.39592
74.3	5.77206
74.52	6.69166
74.74	14.3071
74.96	3.09104
75.18	2.05213
75.4	10.7238
75.62	11.5396
75.84	8.5228
76.06	8.31049
76.28	6.17313
76.5	5.05839
76.72	1.99593
76.94	0.091537
77.16	14.1002
77.38	14.2894
77.6	14.3232
77.82	10.3775
78.04	5.45237
78.26	7.45649
78.48	5.67025
78.7	5.8818
78.92	4.31338
79.14	6.45367
79.36	18.4188
79.58	6.42609
79.8	5.35898
80.02	2.45812
80.24	5.52152
80.46	4.54914
80.68	5.66826
80.9	8.76827
81.12	7.79591
81.34	5.40447
81.56	8.51751
81.78	3.69504
82	1.68714
82.22	7.83957
82.44	2.80576
82.66	4.76832
82.88	3.69112
83.1	0.47962
83.32	4.27657
83.54	5.04955
83.76	13.2656
83.98	10.0992
84.2	7.84304
84.42	11.8143
84.64	13.5739
84.86	3.72505
85.08	6.70035
85.3	1.59868
85.52	3.68202
85.74	7.7503
85.96	2.95294
86.18	1.33011
86.4	8.65026
86.62	4.81916
86.84	25.8365
87.06	12.9632
87.28	3.03465
87.5	3.04995
87.72	1.79491
87.94	5.2735
88.16	5.20839
88.38	12.2836
88.6	2.6006
88.82	0.67783
89.04	8.78423
89.26	4.60672
89.48	8.80169
89.7	17.0482
89.92	0.250658
