Measurement: Powder, Xray Data XY Processed
Mineral: Breithauptite
Rruff sample: R060928
Ideal chemistry: NiSb
Locality: Cobalt, Ontario, Canada
Source: Royal Ontario Museum
Description: Massive aggregate of pinkish metallic crystals
Diffraction sample description: Powder
Measured chemistry: Ni_1.00_(Sb_0.96_As_0.04_)_Î£=1_
Cell parameters: a: 3.9267(2) b: 3.9267(2) c: 5.1348(6) alpha: 90 beta: 90 gamma: 120 volume: 68.567(7) crystal system: hexagonal
x	intensity
5	0
5.22	7.2889
5.44	13.1131
5.66	3.55595
5.88	12.9439
6.1	8.45428
6.32	7.39641
6.54	5.50726
6.76	15.0296
6.98	8.73582
7.2	4.91364
7.42	8.34197
7.64	14.4188
7.86	0.864983
8.08	16.3115
8.3	0.672716
8.52	6.26244
8.74	3.21983
8.96	12.0834
9.18	21.0252
9.4	11.1074
9.62	5.93012
9.84	17.8839
10.06	18.6309
10.28	13.6089
10.5	8.14545
10.72	4.37619
10.94	8.36877
11.16	0.609619
11.38	6.63241
11.6	2.68145
11.82	24.7354
12.04	10.816
12.26	8.35923
12.48	5.61276
12.7	1.69263
12.92	6.69616
13.14	10.6218
13.36	2.83672
13.58	3.54999
13.8	4.0997
14.02	11.3088
14.24	8.93349
14.46	8.87462
14.68	2.16026
14.9	1.92643
15.12	3.17668
15.34	4.11056
15.56	10.0611
15.78	8.82508
16	13.7879
16.22	4.32001
16.44	16.7632
16.66	9.6926
16.88	4.61213
17.1	8.55235
17.32	10.814
17.54	4.71869
17.76	8.45381
17.98	6.23463
18.2	6.17301
18.42	10.1269
18.64	14.7284
18.86	3.98275
19.08	13.7797
19.3	7.32469
19.52	6.1267
19.74	16.8664
19.96	24.4027
20.18	5.07614
20.4	5.96342
20.62	15.0155
20.84	4.91539
21.06	12.0709
21.28	12.2989
21.5	5.28931
21.72	11.4396
21.94	9.59395
22.16	6.155
22.38	16.7674
22.6	14.6941
22.82	18.0844
23.04	10.3473
23.26	4.1373
23.48	15.7547
23.7	14.6162
23.92	8.30423
24.14	2.24045
24.36	15.8782
24.58	16.1118
24.8	0.786943
25.02	9.72586
25.24	2.01117
25.46	16.772
25.68	4.28033
25.9	0.37084
26.12	3.21262
26.34	5.3116
26.56	11.5335
26.78	10.622
27	7.34966
27.22	10.9911
27.44	20.0115
27.66	12.0899
27.88	12.2195
28.1	2.58216
28.32	17.3038
28.54	12.7466
28.76	12.9049
28.98	2.41741
29.2	10.3053
29.42	18.2366
29.64	2.06242
29.86	11.0702
30.08	9.87921
30.3	10.1676
30.52	5.72963
30.74	0.330215
30.96	23.2576
31.18	20.3771
31.4	39.9374
31.62	321.466
31.84	24.2277
32.06	11.4537
32.28	3.57294
32.5	11.3213
32.72	5.45361
32.94	7.55798
33.16	0.691502
33.38	18.5953
33.6	156.563
33.82	18.4907
34.04	17.0069
34.26	8.82076
34.48	1.87048
34.7	9.68757
34.92	37.7729
35.14	9.2075
35.36	12.4355
35.58	10.9201
35.8	12.9642
36.02	21.3001
36.24	12.8198
36.46	7.12312
36.68	9.35015
36.9	0.175432
37.12	9.0619
37.34	10.2125
37.56	22.4094
37.78	14.725
38	0.148249
38.22	11.2222
38.44	7.18157
38.66	11.8589
38.88	12.9249
39.1	1.84128
39.32	9.78279
39.54	13.9557
39.76	7.82715
39.98	10.8497
40.2	19.5032
40.42	11.1855
40.64	19.3546
40.86	2.35066
41.08	13.7299
41.3	9.72885
41.52	2.58546
41.74	9.70204
41.96	21.8037
42.18	6.64958
42.4	12.946
42.62	10.6504
42.84	10.1991
43.06	10.5366
43.28	14.0803
43.5	4.2512
43.72	12.9781
43.94	8.57064
44.16	164.117
44.38	46.7315
44.6	23.512
44.82	3.22989
45.04	16.0717
45.26	10.8069
45.48	9.55015
45.7	16.3203
45.92	28.7135
46.14	187.51
46.36	94.6214
46.58	23.4096
46.8	8.45358
47.02	10.226
47.24	6.3951
47.46	3.0994
47.68	14.634
47.9	13.7282
48.12	5.29959
48.34	9.77028
48.56	5.96864
48.78	11.0208
49	14.0127
49.22	0.920691
49.44	20.6657
49.66	18.0839
49.88	12.1706
50.1	33.0394
50.32	71.5593
50.54	6.13845
50.76	12.0003
50.98	2.91033
51.2	22.4722
51.42	9.80225
51.64	12.6442
51.86	8.01948
52.08	3.1237
52.3	5.4862
52.52	6.51121
52.74	15.6521
52.96	2.49988
53.18	4.68786
53.4	9.65371
53.62	12.1332
53.84	8.2874
54.06	5.68322
54.28	19.846
54.5	12.7729
54.72	5.90864
54.94	1.23599
55.16	15.432
55.38	3.48541
55.6	4.96832
55.82	23.5242
56.04	6.97878
56.26	2.46223
56.48	2.09446
56.7	12.4945
56.92	32.8062
57.14	35.5244
57.36	15.6334
57.58	13.4089
57.8	0.503002
58.02	9.69665
58.24	8.85348
58.46	9.97523
58.68	9.54603
58.9	13.6912
59.12	12.9531
59.34	23.3913
59.56	16.2119
59.78	7.10562
60	12.4495
60.22	3.5671
60.44	33.6382
60.66	30.5181
60.88	9.50491
61.1	14.5337
61.32	3.46784
61.54	1.09206
61.76	15.1556
61.98	23.1499
62.2	12.9823
62.42	18.417
62.64	36.5003
62.86	29.4862
63.08	19.8036
63.3	3.08008
63.52	9.97988
63.74	1.15957
63.96	13.5224
64.18	3.11532
64.4	4.96169
64.62	15.0655
64.84	1.76765
65.06	12.7657
65.28	1.27467
65.5	8.02357
65.72	15.1462
65.94	39.8901
66.16	4.85017
66.38	10.6704
66.6	10.7069
66.82	9.80269
67.04	12.9165
67.26	4.33564
67.48	16.7053
67.7	1.05828
67.92	12.9116
68.14	11.6347
68.36	13.2959
68.58	7.31585
68.8	21.3387
69.02	7.21022
69.24	8.28058
69.46	8.23177
69.68	12.0084
69.9	0.17223
70.12	15.7163
70.34	7.09977
70.56	20.1879
70.78	14.9807
71	19.2839
71.22	24.533
71.44	13.4917
71.66	9.45906
71.88	10.6673
72.1	12.7209
72.32	1.18842
72.54	22.5337
72.76	0.757542
72.98	0.48452
73.2	12.918
73.42	9.78229
73.64	12.6695
73.86	19.5464
74.08	19.399
74.3	21.98
74.52	5.84487
74.74	3.70576
74.96	18.149
75.18	12.0495
75.4	2.02113
75.62	9.63937
75.84	0.464428
76.06	9.43659
76.28	48.8524
76.5	35.6667
76.72	12.8488
76.94	3.20929
77.16	17.02
77.38	17.5899
77.6	2.08209
77.82	9.90835
78.04	7.94266
78.26	0.18795
78.48	21.5294
78.7	1.25232
78.92	14.8887
79.14	4.78828
79.36	22.676
79.58	20.3672
79.8	15.9343
80.02	8.42418
80.24	17.3124
80.46	7.3388
80.68	20.5471
80.9	9.79961
81.12	16.9864
81.34	12.1054
81.56	14.2598
81.78	7.19557
82	8.37748
82.22	15.123
82.44	17.0764
82.66	3.02834
82.88	2.633
83.1	12.1327
83.32	16.5562
83.54	16.0155
83.76	8.88345
83.98	12.4226
84.2	29.8649
84.42	18.4417
84.64	19.5599
84.86	10.8006
85.08	13.1381
85.3	4.54571
85.52	9.92111
85.74	27.6439
85.96	9.27419
86.18	22.1145
86.4	4.88173
86.62	7.49865
86.84	15.6703
87.06	1.40821
87.28	20.6843
87.5	5.87046
87.72	2.24786
87.94	12.0723
88.16	17.1269
88.38	10.2161
88.6	13.347
88.82	13.5201
89.04	8.82748
89.26	8.76398
89.48	18.3332
89.7	2.51861
89.92	6.87576
