Measurement: Powder, Xray Data XY Processed
Mineral: Brochantite
Rruff sample: R060117
Ideal chemistry: Cu^2+^_4_S^6+^O_4_(OH)_6_
Locality: M'sesa mine, Likasi, Katanga Province, Democratic Republic of the Congo
Source: University of Arizona Mineral Museum
Description: Emerald-green thick acicular crystals
Diffraction sample description: Powder
Measured chemistry: Cu_4.00_S_1.00_O_4_(OH)_6_
Cell parameters: a: 12.7644(4) b: 9.8621(5) c: 6.0282(2) alpha: 89.995(6) beta: 90 gamma: 90 volume: 758.85(4) crystal system: monoclinic
x	intensity
5	0
5.22	9.703
5.44	9.466
5.66	8.672
5.88	29.45
6.1	11.265
6.32	6.254
6.54	14.959
6.76	15.332
6.98	1.319
7.2	14.908
7.42	17.718
7.64	18.744
7.86	8.914
8.08	5.384
8.3	18.435
8.52	14.95
8.74	1.527
8.96	12.547
9.18	10.286
9.4	31.443
9.62	17.421
9.84	9.768
10.06	12.511
10.28	8.419
10.5	12.215
10.72	20.801
10.94	13.713
11.16	7.407
11.38	75.017
11.6	22.956
11.82	16.399
12.04	9.855
12.26	15.476
12.48	6.412
12.7	13.387
12.92	22.207
13.14	13.687
13.36	5.929
13.58	15.474
13.8	81.178
14.02	73.396
14.24	27.493
14.46	12.492
14.68	7.655
14.9	10.18
15.12	4.436
15.34	5.553
15.56	16.694
15.78	18.26
16	20.807
16.22	20.539
16.44	43.155
16.66	137.461
16.88	2.709
17.1	15.878
17.32	9.094
17.54	12.265
17.76	27.662
17.98	26.848
18.2	6.133
18.42	20.027
18.64	23.424
18.86	33.265
19.08	10.729
19.3	29.013
19.52	20.907
19.74	26.042
19.96	11.891
20.18	3.85
20.4	8.87
20.62	49.927
20.84	6.015
21.06	25.985
21.28	28.817
21.5	9.794
21.72	14.802
21.94	14.086
22.16	33.934
22.38	25.457
22.6	54.932
22.82	700.271
23.04	52.546
23.26	3.281
23.48	14.396
23.7	26.415
23.92	17.629
24.14	24.059
24.36	7.209
24.58	21.84
24.8	19.581
25.02	17.345
25.24	47.61
25.46	10.333
25.68	15.636
25.9	26.845
26.12	18.133
26.34	18.499
26.56	14.028
26.78	15.884
27	11.803
27.22	18.473
27.44	13.508
27.66	15.816
27.88	67.078
28.1	119.338
28.32	19.707
28.54	4.684
28.76	20.028
28.98	7.899
29.2	8.324
29.42	19.01
29.64	10.965
29.86	5.51
30.08	3.479
30.3	13.15
30.52	22.485
30.74	43.89
30.96	19.357
31.18	19.814
31.4	0.102
31.62	10.716
31.84	23.73
32.06	21.148
32.28	9.405
32.5	15.043
32.72	13.158
32.94	9.344
33.16	1.658
33.38	85.659
33.6	129.347
33.82	13.324
34.04	19.021
34.26	18.124
34.48	120.709
34.7	20.156
34.92	8.795
35.14	0.424
35.36	25.85
35.58	274.686
35.8	109.268
36.02	26.803
36.24	6.996
36.46	105.83
36.68	26.601
36.9	4.766
37.12	10.544
37.34	10.005
37.56	2.345
37.78	47.926
38	13.189
38.22	18.106
38.44	10.68
38.66	16.08
38.88	5.56
39.1	17.09
39.32	25.656
39.54	16.025
39.76	115.184
39.98	21.697
40.2	2.551
40.42	20.219
40.64	20.433
40.86	18.205
41.08	28.592
41.3	66.397
41.52	25.436
41.74	2.799
41.96	18.277
42.18	28.77
42.4	25.934
42.62	1.764
42.84	10.401
43.06	21.277
43.28	15.071
43.5	81.008
43.72	40.643
43.94	19.891
44.16	25.224
44.38	12.382
44.6	0.767
44.82	14.562
45.04	33.827
45.26	13.295
45.48	22.949
45.7	21.028
45.92	23.283
46.14	49.799
46.36	27.975
46.58	38.005
46.8	20.64
47.02	3.539
47.24	0.995
47.46	4.082
47.68	23.31
47.9	9.859
48.12	26.089
48.34	26.085
48.56	5.076
48.78	4.769
49	15.635
49.22	5.329
49.44	35.994
49.66	25.771
49.88	20.061
50.1	61.868
50.32	20.729
50.54	11.455
50.76	16.503
50.98	37.205
51.2	21.192
51.42	10.146
51.64	10.038
51.86	14.867
52.08	8.746
52.3	16.549
52.52	81.359
52.74	72.972
52.96	22.558
53.18	5.396
53.4	29.136
53.62	24.286
53.84	31.532
54.06	15.844
54.28	18.435
54.5	1.003
54.72	44.993
54.94	19.422
55.16	6.367
55.38	8.575
55.6	13.103
55.82	17.674
56.04	24.291
56.26	27.534
56.48	4.414
56.7	18.685
56.92	9.131
57.14	8.184
57.36	8.019
57.58	29.284
57.8	37.473
58.02	25.276
58.24	4.997
58.46	7.898
58.68	16.306
58.9	21.54
59.12	42.47
59.34	58.444
59.56	11.13
59.78	0.044
60	11.364
60.22	53.137
60.44	10.747
60.66	10.818
60.88	0.677
61.1	23.797
61.32	11.671
61.54	48.946
61.76	20.661
61.98	0.465
62.2	17.512
62.42	19.249
62.64	3.097
62.86	4.526
63.08	10.111
63.3	7.121
63.52	28.934
63.74	10.294
63.96	2.281
64.18	2.947
64.4	34.788
64.62	29.778
64.84	12.545
65.06	34.132
65.28	22.884
65.5	8.356
65.72	5.573
65.94	10.725
66.16	9.74
66.38	23.727
66.6	15.634
66.82	6.878
67.04	18.628
67.26	21.754
67.48	12.328
67.7	0.608
67.92	5.998
68.14	14.738
68.36	24.118
68.58	17.042
68.8	22.007
69.02	9.041
69.24	17.776
69.46	14.157
69.68	13.067
69.9	8.202
70.12	8.267
70.34	25.953
70.56	16.304
70.78	17.124
71	12.404
71.22	15.522
71.44	27.105
71.66	17.566
71.88	34.52
72.1	30.878
72.32	11.618
72.54	5.29
72.76	27.098
72.98	25.256
73.2	15.652
73.42	0.684
73.64	6.131
73.86	29.576
74.08	9.418
74.3	16.535
74.52	15.806
74.74	9.794
74.96	22.943
75.18	17.722
75.4	12.459
75.62	18.177
75.84	2.707
76.06	21.879
76.28	14.079
76.5	20.909
76.72	4.839
76.94	10.593
77.16	2.498
77.38	20.733
77.6	13.684
77.82	10.749
78.04	14.735
78.26	16.011
78.48	24.061
78.7	9.926
78.92	22.275
79.14	27.245
79.36	0.297
79.58	24.066
79.8	15.192
80.02	10.97
80.24	19.045
80.46	23.464
80.68	20.2
80.9	15.22
81.12	28.829
81.34	19.996
81.56	7.475
81.78	0.094
82	3.083
82.22	6.778
82.44	7.527
82.66	22.46
82.88	17.207
83.1	22.097
83.32	22.999
83.54	3.112
83.76	1.623
83.98	18.088
84.2	13.743
84.42	13.782
84.64	10.145
84.86	27.382
85.08	12.797
85.3	14.262
85.52	22.753
85.74	33.73
85.96	9.476
86.18	15.215
86.4	6.417
86.62	5.64
86.84	5.81
87.06	14.081
87.28	12.508
87.5	16.504
87.72	10.491
87.94	17.217
88.16	19.684
88.38	19.385
88.6	34.119
88.82	14.089
89.04	30.395
89.26	20.296
89.48	23.298
89.7	19.232
89.92	2.941
