Measurement: Powder, Xray Data XY Processed
Mineral: Brochantite
Rruff sample: R060133
Ideal chemistry: Cu^2+^_4_S^6+^O_4_(OH)_6_
Locality: Shattuck mine, Bisbee, Cochise County, Arizona, USA
Source: University of Arizona Mineral Museum
Description: Deep green thick prismatic crystals
Diffraction sample description: Powder
Measured chemistry: Cu_4.00_S_1.00_O_4_(OH)_6_
Cell parameters: a: 12.7568(5) b: 9.8657(6) c: 6.0334(3) alpha: 89.09(4) beta: 90 gamma: 90 volume: 759.23(6) crystal system: monoclinic
x	intensity
5	0
5.22	36.11
5.44	22.672
5.66	0.594
5.88	9.726
6.1	8.839
6.32	19.732
6.54	14.255
6.76	22.752
6.98	8.234
7.2	1.501
7.42	16.305
7.64	6.803
7.86	7.776
8.08	14.956
8.3	20.678
8.52	10.635
8.74	9.763
8.96	5.036
9.18	17.803
9.4	0.619
9.62	13.674
9.84	22.788
10.06	6.895
10.28	1.842
10.5	4.874
10.72	10.413
10.94	9.749
11.16	6.185
11.38	77.124
11.6	16.996
11.82	12.538
12.04	23.665
12.26	9.738
12.48	9.338
12.7	5.055
12.92	16.399
13.14	16.065
13.36	0.912
13.58	21.187
13.8	57.778
14.02	68.844
14.24	11.111
14.46	0.451
14.68	14.391
14.9	43.748
15.12	0.682
15.34	14.719
15.56	0.163
15.78	14.875
16	9.105
16.22	1.927
16.44	18.07
16.66	168.981
16.88	5.092
17.1	11.447
17.32	5.289
17.54	7.04
17.76	14.617
17.98	32.509
18.2	10.797
18.42	9.317
18.64	13.45
18.86	22.742
19.08	14.924
19.3	5.363
19.52	18.567
19.74	0.711
19.96	15.739
20.18	0.622
20.4	7.06
20.62	27.983
20.84	15.222
21.06	20.895
21.28	0.319
21.5	3.436
21.72	0.457
21.94	6.483
22.16	1.141
22.38	10.662
22.6	5.707
22.82	656.698
23.04	26.36
23.26	17.676
23.48	5.701
23.7	2.823
23.92	17.515
24.14	58.704
24.36	15.462
24.58	2.509
24.8	4.737
25.02	21.001
25.24	2.441
25.46	1.615
25.68	14.342
25.9	1.239
26.12	1.778
26.34	7.238
26.56	9.4
26.78	26.391
27	13.805
27.22	16.275
27.44	1.952
27.66	14.312
27.88	16.458
28.1	129.622
28.32	10.704
28.54	1.383
28.76	2.065
28.98	21.184
29.2	0.015
29.42	8.262
29.64	17.564
29.86	14.273
30.08	2.107
30.3	3.04
30.52	15.046
30.74	27.256
30.96	3.034
31.18	14.381
31.4	86.68
31.62	12.175
31.84	23.554
32.06	13.695
32.28	47.883
32.5	5.217
32.72	9.212
32.94	18.976
33.16	23.333
33.38	42.393
33.6	177.675
33.82	9.286
34.04	4.977
34.26	26.402
34.48	45.797
34.7	15.369
34.92	2.921
35.14	9.093
35.36	4.86
35.58	242.279
35.8	80.117
36.02	12.514
36.24	10.295
36.46	82.766
36.68	42.945
36.9	3.183
37.12	32.13
37.34	0.436
37.56	16.818
37.78	66.568
38	12.281
38.22	16.481
38.44	9.295
38.66	17.042
38.88	16.244
39.1	15.102
39.32	32.546
39.54	6.633
39.76	65.147
39.98	6.386
40.2	17.204
40.42	1.743
40.64	1.915
40.86	4.91
41.08	5.676
41.3	63.323
41.52	15.545
41.74	12.564
41.96	34.72
42.18	33.767
42.4	44.5
42.62	24.47
42.84	12.731
43.06	10.527
43.28	17.645
43.5	20.889
43.72	9.086
43.94	2.513
44.16	2.749
44.38	3.312
44.6	23.141
44.82	0.573
45.04	26.445
45.26	25.346
45.48	11.327
45.7	14.601
45.92	6.378
46.14	45.374
46.36	20.63
46.58	41.203
46.8	7.099
47.02	28.665
47.24	1.393
47.46	14.802
47.68	21.179
47.9	11.886
48.12	13.631
48.34	19.41
48.56	15.527
48.78	16.212
49	15.34
49.22	1.475
49.44	9.885
49.66	2.81
49.88	10.481
50.1	40.125
50.32	33.04
50.54	27.962
50.76	3.809
50.98	53.914
51.2	17.094
51.42	9.882
51.64	12.229
51.86	20.145
52.08	1.605
52.3	0.547
52.52	88.719
52.74	46.376
52.96	4.632
53.18	5.228
53.4	1.705
53.62	43.159
53.84	7.286
54.06	6.628
54.28	23.544
54.5	0.43
54.72	36.843
54.94	24.333
55.16	34.152
55.38	7.108
55.6	15.722
55.82	10.203
56.04	13.899
56.26	27.085
56.48	12.21
56.7	7.628
56.92	19.628
57.14	28.598
57.36	11.711
57.58	28.213
57.8	32.011
58.02	27.079
58.24	1.011
58.46	6.515
58.68	11.718
58.9	12.67
59.12	12.952
59.34	44.647
59.56	29.343
59.78	1.716
60	16.581
60.22	32.716
60.44	18.557
60.66	1.16
60.88	8.775
61.1	36.477
61.32	6.581
61.54	32.946
61.76	5.69
61.98	14.904
62.2	0.786
62.42	11.169
62.64	3.854
62.86	4.421
63.08	9.008
63.3	8.503
63.52	37.272
63.74	9.676
63.96	7.209
64.18	11.159
64.4	19.505
64.62	11.99
64.84	2.963
65.06	35.264
65.28	10.828
65.5	13.894
65.72	24.361
65.94	14.591
66.16	11.507
66.38	19.568
66.6	36.414
66.82	17.031
67.04	41.041
67.26	3.396
67.48	0.234
67.7	3.401
67.92	11.974
68.14	4.352
68.36	17.456
68.58	7.618
68.8	11.438
69.02	6.731
69.24	24.347
69.46	19.67
69.68	13.651
69.9	2.619
70.12	13.248
70.34	31.621
70.56	18.42
70.78	10.712
71	2.347
71.22	7.208
71.44	0.655
71.66	31.336
71.88	23.076
72.1	28.126
72.32	23.206
72.54	11.581
72.76	28.036
72.98	1.652
73.2	23.034
73.42	30.263
73.64	37.69
73.86	31.703
74.08	15.614
74.3	0.981
74.52	0.709
74.74	1.833
74.96	25.216
75.18	7.425
75.4	13.848
75.62	19.766
75.84	0.153
76.06	9.603
76.28	1.302
76.5	23.216
76.72	22.634
76.94	29.158
77.16	10.861
77.38	44.725
77.6	12.914
77.82	21.051
78.04	7.999
78.26	25.512
78.48	20.726
78.7	1.771
78.92	16.247
79.14	11.478
79.36	14.858
79.58	18.534
79.8	0.763
80.02	16.822
80.24	19.63
80.46	2.278
80.68	5.157
80.9	33.755
81.12	22.094
81.34	25.538
81.56	1.986
81.78	1.268
82	1.818
82.22	24.509
82.44	0.959
82.66	17.835
82.88	24.884
83.1	3.266
83.32	11.088
83.54	19.678
83.76	15.081
83.98	2.69
84.2	0.323
84.42	1.782
84.64	30.252
84.86	12.027
85.08	9.811
85.3	6.578
85.52	9.089
85.74	20.348
85.96	12.634
86.18	3.098
86.4	11.866
86.62	10.521
86.84	14.141
87.06	16.956
87.28	3.373
87.5	11.21
87.72	32.827
87.94	2.337
88.16	28.732
88.38	13.005
88.6	33.311
88.82	9.312
89.04	1.886
89.26	20.97
89.48	22.503
89.7	20.676
89.92	12.515
