Measurement: Powder, Xray Data XY Processed
Mineral: Bromargyrite
Rruff sample: R060661
Ideal chemistry: AgBr
Locality: Schone Aussicht, near Dernbach, Nassau, Germany
Source: Michael Scott
Description: Grayish green cubo-octahedron
Diffraction sample description: Powder, using Mo radiation
Cell parameters: a: 5.7401(5) b: 5.7401(5) c: 5.7401(5) alpha: 90 beta: 90 gamma: 90 volume: 189.13(5) crystal system: cubic
x	intensity
9.178	881.108
9.278	883.086
9.378	895.686
9.478	892.598
9.578	917.242
9.678	914.58
9.778	922.478
9.878	899.29
9.978	911.642
10.078	920.152
10.178	909.625
10.278	905.816
10.378	914.629
10.478	915.608
10.578	902.24
10.678	890.281
10.778	899.284
10.878	907.038
10.978	889.818
11.078	895.692
11.178	881.876
11.278	893.844
11.378	897.3
11.478	910.376
11.578	903.535
11.678	917.475
11.778	905.314
11.878	895.952
11.978	951.164
12.078	1178.52
12.178	1497.51
12.278	1508.62
12.378	1216.83
12.478	999.56
12.578	913.968
12.678	882.089
12.778	858.596
12.878	875.69
12.978	857.716
13.078	868.927
13.178	893.077
13.278	859.094
13.378	870.687
13.478	865.806
13.578	863.715
13.678	867.462
13.778	921.015
13.878	1180.73
13.978	2513.65
14.078	4565.41
14.178	4696.98
14.278	2783.02
14.378	1376.01
14.478	945.993
14.578	835.911
14.678	818.633
14.778	798.866
14.878	799.546
14.978	782.45
15.078	767.928
15.178	760.365
15.278	731.166
15.378	715.355
15.478	733.011
15.578	708.879
15.678	710.679
15.778	693.076
15.878	700.314
15.978	696.384
16.078	688.727
16.178	682.325
16.278	672.93
16.378	675.015
16.478	665.815
16.578	656.068
16.678	649.403
16.778	646.202
16.878	639
16.978	630.97
17.078	645.761
17.178	633.171
17.278	632.666
17.378	635.989
17.478	629.534
17.578	619.894
17.678	637.212
17.778	620.042
17.878	637.101
17.978	632.808
18.078	630.115
18.178	613.158
18.278	623.031
18.378	627.522
18.478	605.161
18.578	632.562
18.678	626.491
18.778	633.285
18.878	612.954
18.978	620.527
19.078	626.213
19.178	626.72
19.278	624.813
19.378	620.255
19.478	631.527
19.578	656.955
19.678	704.314
19.778	921.217
19.878	1625.61
19.978	2703.27
20.078	3121.69
20.178	2423.11
20.278	1454.08
20.378	900.953
20.478	695.202
20.578	649.096
20.678	635.463
20.778	629.141
20.878	612.815
20.978	600.458
21.078	588.385
21.178	585.291
21.278	595.342
21.378	593.76
21.478	587.515
21.578	575.279
21.678	578.748
21.778	568.907
21.878	569.317
21.978	565.237
22.078	574.749
22.178	575.052
22.278	559.231
22.378	544.802
22.478	542.516
22.578	550.725
22.678	548.308
22.778	540.428
22.878	562.546
22.978	550.881
23.078	557.457
23.178	561.077
23.278	553.707
23.378	565.462
23.478	615.416
23.578	646.454
23.678	637.807
23.778	612.45
23.878	589.89
23.978	564.07
24.078	568.431
24.178	588.157
24.278	629.091
24.378	790.436
24.478	1164.73
24.578	1527.61
24.678	1600.69
24.778	1344.11
24.878	981.207
24.978	722.138
25.078	605.002
25.178	561.294
25.278	539.392
25.378	547.515
25.478	540.273
25.578	543.014
25.678	541.688
25.778	527.888
25.878	524.861
25.978	520.902
26.078	539.447
26.178	531.713
26.278	528.051
26.378	513.033
26.478	510.837
26.578	519.85
26.678	516.606
26.778	517.969
26.878	518.67
26.978	520.899
27.078	516.469
27.178	516.672
27.278	509.549
27.378	509.642
27.478	515.965
27.578	515.894
27.678	517.367
27.778	508.282
27.878	516.774
27.978	519.479
28.078	529.663
28.178	533.743
28.278	555.792
28.378	622.492
28.478	700.338
28.578	732.677
28.678	685.944
28.778	621.043
28.878	574.565
28.978	536.25
29.078	520.821
29.178	526.94
29.278	518.567
29.378	515.666
29.478	533.99
29.578	524.81
29.678	520.515
29.778	519.657
29.878	515.547
29.978	502.936
30.078	520.035
30.178	532.196
30.278	516.506
30.378	513.875
30.478	514.324
30.578	516.665
30.678	529.572
30.778	516.778
30.878	507.618
30.978	530.582
31.078	538.305
31.178	545.1
31.278	527.707
31.378	545.024
31.478	541.315
31.578	546.966
31.678	579.934
31.778	663.761
31.878	797.763
31.978	922.723
32.078	936.727
32.178	842.019
32.278	727.171
32.378	626.811
32.478	562.025
32.578	548.049
32.678	535.738
32.778	517.829
32.878	522.336
32.978	511.534
33.078	510.217
33.178	498.06
33.278	504.895
33.378	502.865
33.478	510.976
33.578	491.656
33.678	489.319
33.778	501.814
33.878	510.724
33.978	502.771
34.078	493.346
34.178	484.637
34.278	487.772
34.378	487.977
34.478	485.72
34.578	499.118
34.678	501.711
34.778	521.33
34.878	579.354
34.978	652.749
35.078	740.561
35.178	783.675
35.278	772.01
35.378	693.987
35.478	622.166
35.578	557.038
35.678	506.767
35.778	488.514
35.878	487.392
35.978	488.87
36.078	468.474
36.178	465.71
36.278	471.096
36.378	464.21
36.478	463.482
36.578	460.085
36.678	452.644
36.778	452.96
36.878	452.702
36.978	454.888
37.078	462.72
37.178	446.035
37.278	451.294
37.378	455.437
37.478	453.36
37.578	455.724
37.678	451.578
37.778	444.701
37.878	439.356
37.978	455.687
38.078	453.957
38.178	444.555
38.278	446.479
38.378	445.02
38.478	432.403
38.578	440.724
38.678	442.34
38.778	434.886
38.878	438.972
38.978	422.945
39.078	441.313
39.178	444.452
39.278	441.663
39.378	437.059
39.478	424.053
39.578	416.318
39.678	416.679
39.778	432.504
39.878	451.514
39.978	436.88
40.078	443.246
40.178	432.916
40.278	421.309
40.378	425.41
40.478	437.594
40.578	438.06
40.678	470.679
40.778	488.233
40.878	500.811
40.978	473.748
41.078	462.136
41.178	451.936
41.278	436.278
41.378	440.995
41.478	413.937
41.578	428.986
41.678	427.479
41.778	425.468
41.878	432.507
41.978	425.988
42.078	422.162
42.178	417.59
42.278	431.595
42.378	411.591
42.478	419.616
42.578	422.523
42.678	437.712
42.778	419.96
42.878	424.308
42.978	422.715
43.078	431.652
43.178	465.099
43.278	498.862
43.378	504.181
43.478	500.678
43.578	485.426
43.678	480.735
43.778	445.078
43.878	440.408
43.978	442.024
44.078	431.815
44.178	418.058
44.278	410.075
44.378	407.327
44.478	409.036
44.578	414.872
44.678	409.738
44.778	406.513
44.878	409.479
44.978	408.481
45.078	411.957
45.178	412.338
45.278	394.607
45.378	399.58
45.478	424.572
45.578	412.761
45.678	430.902
45.778	431.524
45.878	417.364
45.978	432.521
46.078	450.513
46.178	438.09
46.278	426.215
46.378	428.611
46.478	405.114
46.578	406.052
46.678	397.651
46.778	395.421
46.878	407.117
46.978	391.849
47.078	390.323
47.178	386.692
47.278	397.815
47.378	409.05
47.478	380.778
47.578	396.329
47.678	397.953
47.778	392.67
47.878	388.857
47.978	396.724
48.078	412.369
48.178	402.439
48.278	422.238
48.378	410.897
48.478	391.771
48.578	410.59
48.678	399.388
48.778	395.351
48.878	377.378
48.978	388.12
