Measurement: Powder, Xray Data XY Processed
Mineral: Bromargyrite
Rruff sample: R070338
Ideal chemistry: AgBr
Locality: Broken Hill Mine, Broken Hill, New South Wales, Australia
Source: James Shigley
Description: Green colloidal looking aggregate of octahedra
Diffraction sample description: Powder
Cell parameters: a: 5.6322(2) b: 5.6322(2) c: 5.6322(2) alpha: 90 beta: 90 gamma: 90 volume: 178.66(2) crystal system: cubic
x	intensity
5	0
5.22	23.001
5.44	11.782
5.66	7.46136
5.88	4.77831
6.1	6.84546
6.32	7.41358
6.54	8.87167
6.76	0.781981
6.98	9.14312
7.2	12.4261
7.42	9.01538
7.64	2.7161
7.86	0.543831
8.08	4.94838
8.3	7.19429
8.52	4.43638
8.74	6.85721
8.96	2.85158
9.18	1.21241
9.4	10.8625
9.62	8.0714
9.84	0.390923
10.06	3.64392
10.28	2.01113
10.5	2.99452
10.72	8.11654
10.94	0.147933
11.16	15.2904
11.38	3.43315
11.6	4.63044
11.82	0.669622
12.04	10.7412
12.26	3.90006
12.48	0.956312
12.7	1.29676
12.92	6.54957
13.14	3.75393
13.36	6.63553
13.58	8.57143
13.8	9.64297
14.02	1.75014
14.24	8.90704
14.46	0.098795
14.68	8.45909
14.9	6.69958
15.12	1.23461
15.34	2.82687
15.56	0.701702
15.78	1.7686
16	7.78306
16.22	5.83173
16.44	0.943884
16.66	7.87761
16.88	5.85583
17.1	2.45062
17.32	6.71112
17.54	4.9813
17.76	11.0656
17.98	6.28777
18.2	5.33812
18.42	4.40292
18.64	6.36104
18.86	2.36194
19.08	4.37229
19.3	9.37774
19.52	0.175221
19.74	0.117017
19.96	3.04844
20.18	5.10842
20.4	7.90771
20.62	8.87138
20.84	12.0648
21.06	7.04551
21.28	0.927453
21.5	1.97877
21.72	3.86365
21.94	7.87453
22.16	4.75159
22.38	8.62368
22.6	1.87892
22.82	4.12953
23.04	11.0533
23.26	0.112395
23.48	8.13454
23.7	4.08973
23.92	3.02724
24.14	4.01221
24.36	13.037
24.58	4.32475
24.8	5.29316
25.02	7.1805
25.24	3.95065
25.46	10.8899
25.68	5.71155
25.9	3.52209
26.12	0.344557
26.34	9.11819
26.56	5.90236
26.78	4.76333
27	3.32617
27.22	5.97272
27.44	105.93
27.66	20.7496
27.88	3.69395
28.1	0.215045
28.32	6.88803
28.54	2.16835
28.76	7.51974
28.98	2.66225
29.2	7.62127
29.42	5.58859
29.64	4.37572
29.86	6.21857
30.08	10.8848
30.3	2.28155
30.52	4.5608
30.74	13.065
30.96	3.331
31.18	15.5885
31.4	7.09856
31.62	66.6208
31.84	542.546
32.06	47.4667
32.28	5.48358
32.5	9.68599
32.72	7.44073
32.94	2.27983
33.16	9.75057
33.38	0.317937
33.6	1.79571
33.82	1.28862
34.04	2.63777
34.26	4.06396
34.48	10.5048
34.7	6.94305
34.92	4.23199
35.14	3.86989
35.36	5.8331
35.58	0.023254
35.8	5.17634
36.02	1.27595
36.24	5.53705
36.46	3.82192
36.68	1.74593
36.9	2.8115
37.12	1.58141
37.34	6.42001
37.56	5.56649
37.78	3.5664
38	11.4768
38.22	5.33441
38.44	10.2707
38.66	9.94221
38.88	2.66068
39.1	1.65535
39.32	6.50848
39.54	3.41923
39.76	0.796708
39.98	6.21934
40.2	5.14857
40.42	3.32379
40.64	5.28651
40.86	5.24614
41.08	6.35891
41.3	8.46356
41.52	5.3357
41.74	5.37659
41.96	0.599877
42.18	5.18786
42.4	7.00779
42.62	1.19521
42.84	3.94183
43.06	3.721
43.28	0.180198
43.5	6.87667
43.72	4.34117
43.94	4.90891
44.16	6.32792
44.38	10.8698
44.6	4.64448
44.82	2.1754
45.04	11.5589
45.26	20.377
45.48	137.202
45.7	193.073
45.92	30.0541
46.14	6.2437
46.36	0.953626
46.58	14.3036
46.8	5.83392
47.02	0.288339
47.24	9.72341
47.46	4.20934
47.68	3.64597
47.9	2.24038
48.12	0.127251
48.34	5.22728
48.56	2.09802
48.78	8.31735
49	5.36721
49.22	4.26109
49.44	7.22528
49.66	14.2259
49.88	8.1453
50.1	10.0168
50.32	0.062541
50.54	1.84595
50.76	6.09491
50.98	0.054583
51.2	4.14982
51.42	4.41775
51.64	6.39809
51.86	4.41751
52.08	8.36204
52.3	6.22696
52.52	8.84812
52.74	2.57835
52.96	6.30562
53.18	2.84856
53.4	7.56469
53.62	5.23972
53.84	7.25983
54.06	38.3398
54.28	18.233
54.5	3.15904
54.72	1.42771
54.94	6.58863
55.16	1.66297
55.38	8.64306
55.6	6.65194
55.82	6.64129
56.04	3.38314
56.26	6.16417
56.48	35.2619
56.7	77.5678
56.92	27.6953
57.14	4.55103
57.36	1.97757
57.58	0.834732
57.8	6.90695
58.02	7.42708
58.24	3.70405
58.46	8.90997
58.68	6.14737
58.9	7.20579
59.12	2.32831
59.34	1.41084
59.56	2.35183
59.78	6.23286
60	8.49205
60.22	0.951338
60.44	0.989564
60.66	6.04826
60.88	6.07403
61.1	6.08725
61.32	3.0753
61.54	0.916024
61.76	0.088775
61.98	5.4342
62.2	3.35373
62.42	2.15611
62.64	6.0801
62.86	14.786
63.08	6.57399
63.3	0.39191
63.52	11.4678
63.74	3.26073
63.96	8.97942
64.18	5.54966
64.4	3.10421
64.62	4.28594
64.84	3.02823
65.06	4.90802
65.28	5.81599
65.5	2.77834
65.72	5.0326
65.94	12.202
66.16	12.2316
66.38	19.2741
66.6	27.5476
66.82	7.48463
67.04	6.3754
67.26	7.66243
67.48	9.72416
67.7	0.813145
67.92	3.06008
68.14	13.8508
68.36	6.49019
68.58	8.92232
68.8	3.99438
69.02	0.132941
69.24	13.1672
69.46	8.30599
69.68	2.31247
69.9	3.34612
70.12	3.47262
70.34	8.72715
70.56	5.67414
70.78	9.62995
71	1.31741
71.22	3.2649
71.44	8.20029
71.66	6.21182
71.88	6.91249
72.1	10.6465
72.32	1.531
72.54	1.98413
72.76	2.81247
72.98	5.19287
73.2	14.556
73.42	5.28297
73.64	7.0449
73.86	1.67555
74.08	2.967
74.3	10.6968
74.52	7.28739
74.74	3.9133
74.96	9.66834
75.18	4.35203
75.4	34.5742
75.62	47.1526
75.84	30.2914
76.06	14.7683
76.28	8.19041
76.5	1.71463
76.72	0.171855
76.94	10.5924
77.16	12.0684
77.38	0.466973
77.6	11.895
77.82	1.12112
78.04	2.32603
78.26	5.42537
78.48	7.15866
78.7	4.08846
78.92	5.01424
79.14	6.086
79.36	7.15501
79.58	5.22152
79.8	6.61803
80.02	2.64235
80.24	6.58681
80.46	11.8286
80.68	3.81284
80.9	6.82934
81.12	7.77503
81.34	5.8304
81.56	0.743121
81.78	8.87417
82	2.65716
82.22	13.4716
82.44	9.17385
82.66	3.77509
82.88	1.50363
83.1	9.20157
83.32	0.940179
83.54	10.7016
83.76	6.31008
83.98	22.1681
84.2	28.1428
84.42	28.0369
84.64	19.0295
84.86	7.2625
85.08	3.50667
85.3	3.76612
85.52	6.37006
85.74	6.66233
85.96	2.96842
86.18	0.444818
86.4	8.35576
86.62	2.72879
86.84	6.90153
87.06	11.191
87.28	6.37926
87.5	9.54068
87.72	2.29504
87.94	5.78191
88.16	10.0016
88.38	7.15559
88.6	7.2324
88.82	7.26706
89.04	2.92818
89.26	7.2215
89.48	2.50316
89.7	9.88052
89.92	12.6347
