Measurement: Powder, Xray Data XY Processed
Mineral: Brookite
Rruff sample: R050591
Ideal chemistry: Ti^4+^O_2_
Locality: Taftan, near Dalbandi, Baluchistan, Pakistan
Source: Wayne Thompson
Description: Yellowish-brown to reddish-brown thin tabular crystal
Diffraction sample description: Powder
Measured chemistry: Ti_1.00_O_2_
Cell parameters: a: 9.1741(3) b: 5.4495(2) c: 5.1376(2) alpha: 90. beta: 90. gamma: 90. volume: 256.85(1) crystal system: orthorhombic
x	intensity
5	0
5.22	4.793
5.44	12.324
5.66	15.593
5.88	10.297
6.1	16.99
6.32	9.82
6.54	14.811
6.76	8.767
6.98	4.536
7.2	9.34
7.42	9.021
7.64	4.664
7.86	1.566
8.08	9.052
8.3	5.415
8.52	7.744
8.74	9.714
8.96	1.519
9.18	8.472
9.4	4.645
9.62	5.79
9.84	9.063
10.06	8.938
10.28	8.762
10.5	0.11
10.72	5.008
10.94	11.343
11.16	4.578
11.38	13.679
11.6	0.99
11.82	6.925
12.04	1.976
12.26	18.881
12.48	2.999
12.7	5.004
12.92	12.097
13.14	0.118
13.36	11.05
13.58	7.97
13.8	13.299
14.02	2.964
14.24	0.201
14.46	1.678
14.68	3.394
14.9	0.519
15.12	6.504
15.34	4.939
15.56	6.265
15.78	5.353
16	2.507
16.22	5.681
16.44	2.017
16.66	4.886
16.88	8.152
17.1	0.223
17.32	6.33
17.54	3.429
17.76	6.141
17.98	11.052
18.2	1.085
18.42	5.059
18.64	0.74
18.86	10.172
19.08	3.231
19.3	4.202
19.52	0.578
19.74	5.488
19.96	0.787
20.18	12.904
20.4	4.209
20.62	4.447
20.84	8.568
21.06	5.417
21.28	4.549
21.5	2.872
21.72	5.095
21.94	2.049
22.16	0.92
22.38	6.048
22.6	4.525
22.82	11.151
23.04	4.154
23.26	8.07
23.48	6.711
23.7	9.363
23.92	7.729
24.14	10.093
24.36	1.662
24.58	0.215
24.8	8.638
25.02	3.884
25.24	32.702
25.46	91.783
25.68	151.737
25.9	9.005
26.12	8.227
26.34	1.726
26.56	1.08
26.78	4.422
27	9.861
27.22	7.343
27.44	5.976
27.66	5.975
27.88	6.015
28.1	6.301
28.32	2.341
28.54	1.664
28.76	0.856
28.98	4.154
29.2	7.035
29.42	2.923
29.64	4.62
29.86	1.148
30.08	4.958
30.3	4.893
30.52	5.732
30.74	39.737
30.96	71.006
31.18	12.117
31.4	7.13
31.62	6.277
31.84	1.669
32.06	7.59
32.28	5.048
32.5	2.366
32.72	3.488
32.94	25.617
33.16	1.571
33.38	1.516
33.6	2.598
33.82	4.63
34.04	1.369
34.26	5.565
34.48	1.452
34.7	4.743
34.92	2.649
35.14	7.53
35.36	4.379
35.58	3.314
35.8	6.031
36.02	2.214
36.24	32.083
36.46	13.999
36.68	9.183
36.9	6.946
37.12	4.474
37.34	81.295
37.56	6.247
37.78	3.529
38	18.724
38.22	6.597
38.44	8.575
38.66	16.653
38.88	3.629
39.1	0.533
39.32	15.583
39.54	1.008
39.76	1.189
39.98	15.513
40.2	54.231
40.42	4.257
40.64	3.347
40.86	0.711
41.08	1.271
41.3	3.692
41.52	3.732
41.74	1.744
41.96	7.43
42.18	6.361
42.4	52.114
42.62	1.245
42.84	4.353
43.06	9.403
43.28	5.142
43.5	3.421
43.72	1.606
43.94	2.783
44.16	3.116
44.38	1.115
44.6	9.267
44.82	6.417
45.04	8.194
45.26	2.065
45.48	6.032
45.7	5.007
45.92	1.827
46.14	75.836
46.36	8.646
46.58	10.496
46.8	9.312
47.02	1.154
47.24	4.872
47.46	7.767
47.68	7.173
47.9	9.106
48.12	53.572
48.34	12.438
48.56	0.866
48.78	0.028
49	4.711
49.22	74.698
49.44	8.682
49.66	9.713
49.88	17.984
50.1	0.749
50.32	4.933
50.54	4.205
50.76	3.482
50.98	1.869
51.2	4.152
51.42	4.446
51.64	13.759
51.86	13.253
52.08	19.407
52.3	0.591
52.52	3.731
52.74	1.595
52.96	3.476
53.18	3.179
53.4	1.959
53.62	1.187
53.84	3.571
54.06	9.223
54.28	83.698
54.5	23.423
54.72	0.939
54.94	3.789
55.16	7.726
55.38	30.044
55.6	7.278
55.82	10.361
56.04	8.503
56.26	7.502
56.48	10.721
56.7	1.017
56.92	12.223
57.14	20.599
57.36	23.769
57.58	7.05
57.8	6.748
58.02	1.033
58.24	1.991
58.46	4.215
58.68	4.509
58.9	4.482
59.12	4.556
59.34	0.567
59.56	1.47
59.78	3.494
60	11.474
60.22	15.621
60.44	9.606
60.66	13.944
60.88	2.004
61.1	1.854
61.32	7.852
61.54	1.174
61.76	7.488
61.98	3.333
62.2	19.016
62.42	8.612
62.64	7.15
62.86	7.646
63.08	5.911
63.3	11.332
63.52	26.905
63.74	50.521
63.96	11.806
64.18	11.017
64.4	9.321
64.62	22.541
64.84	17.662
65.06	23.858
65.28	29.245
65.5	3.105
65.72	6.279
65.94	43.802
66.16	24.356
66.38	1.216
66.6	2.117
66.82	0.958
67.04	1.076
67.26	4.458
67.48	4.653
67.7	4.51
67.92	2.346
68.14	3.619
68.36	5.556
68.58	0.468
68.8	12.553
69.02	4.819
69.24	4.879
69.46	9.737
69.68	8.522
69.9	3.474
70.12	1.533
70.34	6.714
70.56	18.406
70.78	4.328
71	6.148
71.22	1.038
71.44	1.735
71.66	1.768
71.88	7.802
72.1	8.952
72.32	4.075
72.54	5.04
72.76	2.028
72.98	2.151
73.2	0.691
73.42	3.37
73.64	3.441
73.86	9.605
74.08	4.675
74.3	1.67
74.52	13.629
74.74	2.77
74.96	6.671
75.18	5.748
75.4	2.916
75.62	2.87
75.84	1.87
76.06	0.147
76.28	0.749
76.5	2.697
76.72	5.761
76.94	8.749
77.16	13.655
77.38	4.899
77.6	0.221
77.82	3.886
78.04	1.911
78.26	2.972
78.48	0.951
78.7	5.106
78.92	3.119
79.14	9.139
79.36	9.174
79.58	7.26
79.8	4.218
80.02	6.369
80.24	3.147
80.46	8.161
80.68	5.294
80.9	0.265
81.12	3.209
81.34	11.077
81.56	2.938
81.78	7.723
82	4.572
82.22	6.597
82.44	8.327
82.66	4.24
82.88	5.093
83.1	0.834
83.32	3.684
83.54	4.565
83.76	7.489
83.98	7.46
84.2	1.417
84.42	13.567
84.64	8.471
84.86	5.657
85.08	2.131
85.3	2.456
85.52	9.702
85.74	3.87
85.96	1.037
86.18	4.178
86.4	0.282
86.62	6.295
86.84	14.233
87.06	5.251
87.28	4.282
87.5	8.115
87.72	0.084
87.94	4.082
88.16	0.756
88.38	1.448
88.6	3.741
88.82	2.943
89.04	9.244
89.26	7.377
89.48	2.738
89.7	8.002
89.92	4.729
