Measurement: Powder, Xray Data XY Processed
Mineral: Bukovskyite
Rruff sample: R050630
Ideal chemistry: Fe^3+^_2_(As^5+^O_4_)(S^6+^O_4_)(OH)7H_2_O
Locality: Kutna Hora, Bohemia, Czechoslovakia
Source: University of Arizona Mineral Museum
Description: Compact aggregate of microscopic randomly oriented colorless acicular crystals
Diffraction sample description: Powder, using Mo radiation
Measured chemistry: (Fe^3+^_1.97_Al_0.03_)((As_0.98_P_0.02_)O_4_)(S_1.00_O_4_)((OH)_0.94_F_0.03_Cl_0.03_)Â·7H_2_O
x	intensity
6.73	0
6.88	13.1087
7.03	3.42691
7.18	22.2831
7.33	122.889
7.48	250.384
7.63	344.817
7.78	289.565
7.93	145.104
8.08	80.0346
8.23	31.1813
8.38	54.6317
8.53	51.0276
8.68	89.6204
8.83	103.366
8.98	140.773
9.13	168.967
9.28	207.088
9.43	184.988
9.58	284.169
9.73	501.305
9.88	671.658
10.03	540.392
10.18	415.133
10.33	434.502
10.48	340.834
10.63	156.345
10.78	71.8474
10.93	175.439
11.08	370.522
11.23	515.481
11.38	591.685
11.53	535.564
11.68	379.417
11.83	196.102
11.98	118.16
12.13	123.364
12.28	204.437
12.43	281.35
12.58	320.102
12.73	250.863
12.88	227.222
13.03	351.129
13.18	561.7
13.33	569.663
13.48	403.733
13.63	384.64
13.78	395.878
13.93	319.983
14.08	253.917
14.23	269.504
14.38	294.576
14.53	221.834
14.68	133.016
14.83	117.105
14.98	133.007
15.13	127.621
15.28	83.8073
15.43	39.8227
15.58	30.8919
15.73	20.2646
15.88	14.1538
16.03	22.3665
16.18	31.2677
16.33	11.1656
16.48	24.7759
16.63	99.2992
16.78	99.61
16.93	60.5849
17.08	54.2615
17.23	86.5922
17.38	86.8153
17.53	78.6654
17.68	100.144
17.83	124.222
17.98	147.986
18.13	119.891
18.28	81.1602
18.43	82.0039
18.58	82.3422
18.73	76.2766
18.88	61.7286
19.03	55.8647
19.18	51.4529
19.33	86.5145
19.48	118.248
19.63	126.328
19.78	111.351
19.93	105.702
20.08	103.214
20.23	76.2447
20.38	48.8486
20.53	35.448
20.68	27.5588
20.83	29.0958
20.98	34.28
21.13	0.2724
21.28	16.6098
21.43	17.624
21.58	5.34582
21.73	34.7316
21.88	88.7711
22.03	116.266
22.18	95.7565
22.33	43.4408
22.48	30.7289
22.63	58.2676
22.78	28.332
22.93	39.8522
23.08	59.2773
23.23	54.429
23.38	72.1258
23.53	92.6491
23.68	95.8062
23.83	57.2721
23.98	45.7468
24.13	56.5525
24.28	66.7241
24.43	103.965
24.58	146.548
24.73	192.397
24.88	197.8
25.03	151.586
25.18	107.328
25.33	74.8413
25.48	54.7288
25.63	50.0173
25.78	42.2087
25.93	34.5286
26.08	17.3312
26.23	19.0023
26.38	54.574
26.53	86.6294
26.68	115.543
26.83	117.278
26.98	80.2087
27.13	47.9835
27.28	25.9668
27.43	14.5533
27.58	12.8152
27.73	15.8301
27.88	26.6521
28.03	45.4154
28.18	22.0085
28.33	8.14569
28.48	18.2064
28.63	17.0477
28.78	37.0674
28.93	48.3915
29.08	45.8757
29.23	39.0865
29.38	25.5037
29.53	8.65137
29.68	12.9416
29.83	4.35529
29.98	9.68884
30.13	11.2927
30.28	12.81
30.43	10.5574
30.58	0.664368
30.73	9.1933
30.88	8.7395
31.03	3.80908
31.18	14.8146
31.33	0.872375
31.48	15.2244
31.63	13.7073
31.78	18.5046
31.93	16.5305
32.08	6.64771
32.23	1.96905
32.38	3.11023
32.53	12.6679
32.68	9.92407
32.83	32.7442
32.98	31.5194
33.13	42.2577
33.28	38.1736
33.43	38.8896
33.58	39.6428
33.73	26.3783
33.88	11.299
34.03	29.0233
34.18	46.7095
34.33	48.7476
34.48	32.6361
34.63	22.6198
34.78	14.6991
34.93	10.157
35.08	7.39093
35.23	7.30554
35.38	11.0344
35.53	2.42963
35.68	9.77991
35.83	9.94782
35.98	11.4813
36.13	9.24091
36.28	19.0961
36.43	13.208
36.58	13.2663
36.73	14.029
36.88	9.15692
37.03	4.13684
37.18	0.193359
37.33	7.17352
37.48	0.812439
37.63	2.51581
37.78	1.87329
37.93	5.62958
38.08	10.7806
38.23	6.38605
38.38	8.52509
38.53	14.5602
38.68	7.54907
38.83	23.9985
38.98	13.0287
39.13	27.5324
39.28	40.1251
39.43	40.7568
39.58	35.6311
39.73	40.9847
39.88	32.6401
40.03	36.0176
40.18	26.8199
40.33	29.6794
40.48	29.0806
40.63	33.2236
40.78	33.1542
40.93	25.4153
41.08	27.7283
41.23	33.7634
41.38	19.5358
41.53	21.9119
41.68	21.0583
41.83	22.815
41.98	17.0484
42.13	13.162
42.28	21.8303
42.43	13.1292
42.58	17.6328
42.73	16.5844
42.88	16.4964
43.03	21.8078
43.18	19.1398
43.33	17.192
43.48	20.8856
43.63	19.7299
43.78	13.2113
43.93	13.6822
44.08	10.1647
44.23	13.5546
44.38	15.8572
44.53	12.9786
44.68	9.80237
44.83	4.58783
44.98	15.6262
45.13	8.33508
45.28	8.61902
45.43	8.90826
45.58	11.3373
45.73	2.78534
45.88	4.94818
46.03	0.162781
46.18	5.89178
46.33	2.37759
46.48	6.3468
46.63	6.17108
46.78	2.09369
46.93	3.87689
47.08	9.27414
47.23	7.57083
47.38	2.54614
47.53	8.05539
47.68	13.8952
47.83	21.3368
47.98	3.62888
48.13	1.16959
48.28	5.71197
48.43	10.6173
48.58	12.5544
48.73	16.8206
48.88	12.9135
49.03	6.46445
49.18	13.4082
49.33	4.61499
49.48	17.3684
49.63	16.2633
49.78	1.32623
49.93	8.65314
50.08	13.3373
50.23	9.47284
50.38	6.99057
50.53	9.50388
50.68	4.71234
50.83	6.05103
50.98	2.79523
51.13	4.91034
51.28	15.3999
51.43	7.3248
51.58	13.6228
51.73	8.13788
51.88	14.6106
52.03	12.2675
52.18	12.0505
52.33	16.2571
52.48	20.5544
52.63	14.1092
52.78	19.2809
52.93	18.2489
53.08	13.3002
53.23	8.60495
53.38	13.7073
53.53	15.0335
53.68	16.6269
53.83	23.6289
53.98	10.5628
54.13	3.59494
54.28	6.73306
54.43	12.5716
54.58	22.0891
54.73	13.7476
54.88	5.46863
55.03	13.5099
55.18	8.15231
55.33	5.60574
55.48	10.2172
55.63	12.8934
55.78	15.1052
55.93	2.57578
56.08	1.25049
56.23	10.1912
56.38	17.4141
56.53	0.23056
56.68	7.13217
56.83	7.09241
56.98	20.8087
57.13	2.28006
57.28	4.83649
57.43	1.91858
57.58	11.2119
57.73	15.0712
57.88	16.9028
58.03	0.165894
58.18	7.07974
58.33	21.764
58.48	7.39178
58.63	14.5237
58.78	18.8605
58.93	13.6651
59.08	17.5408
59.23	24.894
59.38	6.45108
59.53	6.41925
59.68	1.49799
59.83	28.8865
59.98	30.1758
60.13	11.4639
60.28	17.9293
60.43	23.2331
60.58	21.6228
60.73	8.46338
60.88	11.3872
61.03	16.7794
61.18	1.465
61.33	12.2595
61.48	3.28543
61.63	19.6751
61.78	12.6971
61.93	21.042
62.08	20.6209
62.23	12.5822
62.38	15.6967
62.53	13.9766
62.68	5.90466
62.83	10.7592
62.98	29.5829
63.13	10.628
63.28	8.12418
63.43	5.215
63.58	9.54355
63.73	3.24954
