Measurement: Powder, Xray Data XY Processed
Mineral: Calcite
Rruff sample: R050307
Ideal chemistry: CaCO_3_
Locality: Zaire
Source: Eugene Schlepp
Description: Group of pink prismatic crystals
Diffraction sample description: Powder
Measured chemistry: Ca_1.00_CO_3_
Cell parameters: a: 4.9866(3) b: 4.9866(3) c: 17.052(1) alpha: 90 beta: 90 gamma: 120 volume: 367.21(3) crystal system: hexagonal
x	intensity
5	0
5.22	8.23075
5.44	16.2586
5.66	11.4655
5.88	14.9301
6.1	8.73627
6.32	19.5983
6.54	14.3738
6.76	5.45551
6.98	17.2551
7.2	7.57152
7.42	3.40516
7.64	5.18522
7.86	0.843485
8.08	7.79223
8.3	8.49314
8.52	6.91582
8.74	3.20007
8.96	1.58925
9.18	3.25578
9.4	5.76296
9.62	5.55106
9.84	2.74702
10.06	3.01435
10.28	4.94734
10.5	0.189812
10.72	2.27098
10.94	5.49448
11.16	0.69779
11.38	1.02392
11.6	5.09547
11.82	2.96501
12.04	10.0042
12.26	3.1786
12.48	5.13953
12.7	5.13237
12.92	4.1264
13.14	2.01183
13.36	1.96484
13.58	8.77938
13.8	1.7311
14.02	1.71556
14.24	1.60261
14.46	6.54059
14.68	13.4427
14.9	2.55054
15.12	3.65677
15.34	2.49531
15.56	3.36451
15.78	4.32201
16	3.31205
16.22	2.09889
16.44	0.135431
16.66	3.11278
16.88	4.30941
17.1	4.31277
17.32	8.29512
17.54	1.19154
17.76	4.28286
17.98	4.43703
18.2	3.62111
18.42	4.7562
18.64	10.0127
18.86	7.13858
19.08	11.2397
19.3	3.30109
19.52	5.33497
19.74	7.47176
19.96	2.58802
20.18	10.8167
20.4	1.05333
20.62	8.10507
20.84	6.11834
21.06	0.187697
21.28	6.28566
21.5	0.723362
21.72	8.1496
21.94	9.91169
22.16	0.776567
22.38	4.50967
22.6	3.36563
22.82	7.98498
23.04	31.1105
23.26	11.8073
23.48	1.88183
23.7	1.75544
23.92	6.8884
24.14	2.89727
24.36	11.9718
24.58	1.00941
24.8	2.37673
25.02	9.47951
25.24	0.543802
25.46	5.21124
25.68	3.17608
25.9	5.08555
26.12	7.05939
26.34	6.77041
26.56	16.7034
26.78	7.69443
27	0.296736
27.22	6.16014
27.44	5.75347
27.66	0.599742
27.88	11.9433
28.1	6.30995
28.32	4.68539
28.54	5.16915
28.76	1.70715
28.98	16.2378
29.2	27.9403
29.42	747.466
29.64	64.4073
29.86	14.5882
30.08	1.3473
30.3	7.76929
30.52	5.9869
30.74	1.50166
30.96	1.74403
31.18	6.967
31.4	10.3791
31.62	10.6034
31.84	4.21825
32.06	1.87084
32.28	5.82704
32.5	4.89193
32.72	1.11208
32.94	1.38941
33.16	8.34819
33.38	1.39598
33.6	9.44356
33.82	3.07275
34.04	6.98206
34.26	7.01725
34.48	6.86507
34.7	0.836436
34.92	1.81635
35.14	6.72227
35.36	2.73864
35.58	3.93358
35.8	13.1012
36.02	63.1937
36.24	13.5242
36.46	7.65712
36.68	2.10442
36.9	7.91328
37.12	4.99976
37.34	0.318948
37.56	1.36308
37.78	10.2018
38	6.79759
38.22	3.60246
38.44	5.46216
38.66	3.08218
38.88	0.609487
39.1	10.2126
39.32	15.1465
39.54	72.0737
39.76	11.8429
39.98	9.04397
40.2	9.99892
40.42	3.46063
40.64	15.561
40.86	0.887606
41.08	8.18966
41.3	1.43456
41.52	5.71437
41.74	4.78803
41.96	4.70484
42.18	3.40708
42.4	11.2661
42.62	3.15171
42.84	5.78719
43.06	16.9725
43.28	51.8453
43.5	11.919
43.72	7.77576
43.94	3.17794
44.16	3.20047
44.38	3.34691
44.6	6.50132
44.82	8.80352
45.04	5.16257
45.26	6.34448
45.48	10.1628
45.7	3.91776
45.92	2.65986
46.14	1.08199
46.36	0.446557
46.58	7.99932
46.8	7.4645
47.02	11.0741
47.24	19.4013
47.46	37.7289
47.68	112.159
47.9	6.92667
48.12	6.98757
48.34	11.3024
48.56	90.8491
48.78	19.4377
49	8.25144
49.22	4.87471
49.44	5.53442
49.66	4.31492
49.88	3.9503
50.1	12.5108
50.32	8.92554
50.54	1.12728
50.76	0.127921
50.98	2.34231
51.2	9.35227
51.42	6.38971
51.64	1.47416
51.86	7.52518
52.08	8.435
52.3	2.41562
52.52	2.43387
52.74	7.62965
52.96	4.70092
53.18	6.76781
53.4	2.76209
53.62	2.97645
53.84	2.93319
54.06	4.86501
54.28	3.00444
54.5	1.11161
54.72	3.27916
54.94	3.12678
55.16	5.97818
55.38	11.5915
55.6	4.31867
55.82	3.97709
56.04	0.602102
56.26	0.222628
56.48	6.96155
56.7	6.50291
56.92	9.53726
57.14	6.22315
57.36	11.2079
57.58	15.3412
57.8	7.55405
58.02	2.94577
58.24	2.38735
58.46	5.62563
58.68	1.31355
58.9	8.82953
59.12	7.86445
59.34	1.74412
59.56	0.765434
59.78	6.61291
60	0.463427
60.22	4.25659
60.44	4.9984
60.66	14.6967
60.88	14.6425
61.1	1.41881
61.32	16.3023
61.54	10.6167
61.76	7.01875
61.98	1.134
62.2	1.36235
62.42	7.48209
62.64	7.62426
62.86	2.80354
63.08	0.801375
63.3	5.83109
63.52	0.478462
63.74	5.13619
63.96	0.768882
64.18	2.44829
64.4	3.60318
64.62	10.3756
64.84	13.2981
65.06	4.17103
65.28	2.31977
65.5	9.42704
65.72	6.49069
65.94	4.67343
66.16	9.17377
66.38	2.61461
66.6	3.53053
66.82	1.79246
67.04	4.29729
67.26	5.83462
67.48	5.06817
67.7	1.15302
67.92	13.106
68.14	7.13365
68.36	4.99655
68.58	4.73682
68.8	1.44704
69.02	6.32545
69.24	1.19004
69.46	3.98601
69.68	5.45058
69.9	2.57171
70.12	2.62273
70.34	10.686
70.56	2.10525
70.78	3.91499
71	0.973942
71.22	7.00056
71.44	0.96086
71.66	9.16517
71.88	3.00806
72.1	2.92997
72.32	0.212899
72.54	0.289885
72.76	9.63554
72.98	9.63479
73.2	6.83463
73.42	13.8712
73.64	8.91426
73.86	6.21274
74.08	6.24052
74.3	5.36277
74.52	2.40007
74.74	0.353633
74.96	7.55428
75.18	8.47141
75.4	0.496799
75.62	3.28124
75.84	0.228744
76.06	5.07503
76.28	5.86209
76.5	4.65843
76.72	1.74741
76.94	0.840515
77.16	10.9396
77.38	8.80465
77.6	3.99398
77.82	5.87003
78.04	2.93151
78.26	5.05459
78.48	4.30028
78.7	9.48336
78.92	2.66191
79.14	6.58176
79.36	6.86435
79.58	6.81269
79.8	2.01851
80.02	0.991328
80.24	5.98269
80.46	5.95911
80.68	5.81821
80.9	3.59375
81.12	4.41199
81.34	4.52938
81.56	11.4098
81.78	10.9877
82	11.0573
82.22	7.71686
82.44	2.79655
82.66	3.63451
82.88	3.48208
83.1	2.6338
83.32	3.32695
83.54	11.0851
83.76	10.8212
83.98	2.72989
84.2	4.77308
84.42	0.125227
84.64	3.79937
84.86	1.7387
85.08	5.99749
85.3	1.14573
85.52	0.611293
85.74	6.42578
85.96	4.60401
86.18	2.78601
86.4	0.027603
86.62	1.86291
86.84	5.01823
87.06	2.10362
87.28	4.45499
87.5	7.5685
87.72	4.67285
87.94	3.77159
88.16	7.84722
88.38	7.99604
88.6	6.14226
88.82	8.14228
89.04	2.19527
89.26	5.03369
89.48	5.77032
89.7	6.77454
89.92	0.211004
