Measurement: Powder, Xray Data XY Processed
Mineral: Calcite
Rruff sample: R050048
Ideal chemistry: CaCO_3_
Locality: Magdalena, New Mexico, USA
Source: University of Arizona Mineral Museum
Description: Colorless massive
Diffraction sample description: Powder
Measured chemistry: (Ca_0.99_Zn_0.01_)CO_3_
Cell parameters: a: 4.9793(1) b: 4.9793(1) c: 17.0244(9) alpha: 90. beta: 90. gamma: 120. volume: 365.55(2) crystal system: hexagonal
x	intensity
5	0
5.22	5.173
5.44	9.884
5.66	3.424
5.88	5.308
6.1	15.365
6.32	11.765
6.54	14.05
6.76	21.516
6.98	11.748
7.2	4.203
7.42	4.91
7.64	7.613
7.86	7.093
8.08	4.526
8.3	7.999
8.52	3.558
8.74	2.729
8.96	2.901
9.18	3.95
9.4	0.927
9.62	5.933
9.84	10.79
10.06	5.561
10.28	5.815
10.5	3.989
10.72	2.011
10.94	12.13
11.16	5.274
11.38	3.909
11.6	2.981
11.82	3.157
12.04	6.331
12.26	5.476
12.48	2.508
12.7	7.672
12.92	4.75
13.14	11.717
13.36	3.994
13.58	2.915
13.8	0.641
14.02	7.822
14.24	4.88
14.46	8.055
14.68	4.131
14.9	10.239
15.12	0.226
15.34	5.306
15.56	12.419
15.78	8.241
16	4.401
16.22	1.442
16.44	1.545
16.66	0.644
16.88	2.843
17.1	1.872
17.32	9.038
17.54	6.202
17.76	4.369
17.98	1.426
18.2	4.587
18.42	4.737
18.64	12.69
18.86	2.717
19.08	2.675
19.3	3.697
19.52	5.761
19.74	3.881
19.96	1.039
20.18	0.017
20.4	6.035
20.62	3.097
20.84	3.959
21.06	1.114
21.28	3.948
21.5	10.066
21.72	3.858
21.94	5.694
22.16	6.333
22.38	3.962
22.6	2.185
22.82	0.683
23.04	23.483
23.26	27.393
23.48	8.378
23.7	1.711
23.92	2.737
24.14	5.942
24.36	6.1
24.58	1.398
24.8	6.688
25.02	0.043
25.24	8.094
25.46	9.228
25.68	1.257
25.9	0.542
26.12	5.252
26.34	7.442
26.56	19.518
26.78	2.621
27	4.565
27.22	2.138
27.44	7.582
27.66	0.953
27.88	8.39
28.1	0.658
28.32	3.675
28.54	4.784
28.76	8.765
28.98	17.024
29.2	27.368
29.42	328.788
29.64	299.881
29.86	31.095
30.08	9.622
30.3	1.994
30.52	1.452
30.74	0.098
30.96	5.811
31.18	1.308
31.4	6.215
31.62	27.924
31.84	2.418
32.06	2.618
32.28	0.341
32.5	2.855
32.72	5.25
32.94	5.549
33.16	2.702
33.38	2.848
33.6	7.005
33.82	1.158
34.04	3.887
34.26	1.773
34.48	0.646
34.7	7.551
34.92	1.257
35.14	4.03
35.36	3.854
35.58	1.812
35.8	10.806
36.02	65.535
36.24	37.779
36.46	5.941
36.68	5.05
36.9	0.154
37.12	0.436
37.34	4.673
37.56	4.625
37.78	5.544
38	7.328
38.22	3.981
38.44	1.751
38.66	5.279
38.88	6.071
39.1	5.996
39.32	19.903
39.54	162.956
39.76	19.854
39.98	7.53
40.2	4.696
40.42	0.891
40.64	2.108
40.86	3.577
41.08	0.252
41.3	2.833
41.52	5.039
41.74	1.949
41.96	0.514
42.18	0.237
42.4	1.528
42.62	4.316
42.84	10.088
43.06	16.871
43.28	100.673
43.5	35.654
43.72	3.827
43.94	10.822
44.16	4.121
44.38	4.597
44.6	10.141
44.82	11.663
45.04	4.87
45.26	3.791
45.48	2.286
45.7	5.11
45.92	6.215
46.14	3.103
46.36	1.853
46.58	1.539
46.8	2.031
47.02	2.479
47.24	40.879
47.46	35.897
47.68	108.131
47.9	34.695
48.12	3.546
48.34	6.125
48.56	98.148
48.78	119.643
49	13.923
49.22	5.21
49.44	1.461
49.66	6.68
49.88	0.866
50.1	6.855
50.32	2.86
50.54	5.691
50.76	8.044
50.98	2.1
51.2	5.885
51.42	4.915
51.64	3.886
51.86	7.221
52.08	1.276
52.3	2.295
52.52	2.401
52.74	5.348
52.96	1.364
53.18	6.515
53.4	5.433
53.62	3.448
53.84	7.469
54.06	6.623
54.28	0.494
54.5	2.562
54.72	3.484
54.94	4.564
55.16	9.496
55.38	2.172
55.6	4.885
55.82	0.39
56.04	1.393
56.26	2.06
56.48	9.507
56.7	18.145
56.92	8.88
57.14	11.584
57.36	15.248
57.58	44.226
57.8	14.334
58.02	9.685
58.24	15.133
58.46	10.535
58.68	2.854
58.9	0.284
59.12	2.748
59.34	3.099
59.56	1.234
59.78	0.302
60	0.322
60.22	8.179
60.44	3.903
60.66	11.567
60.88	21.351
61.1	33.207
61.32	19.017
61.54	14.204
61.76	17.915
61.98	0.984
62.2	2.028
62.42	2.13
62.64	0.274
62.86	3.41
63.08	9.77
63.3	11.719
63.52	2.681
63.74	2.217
63.96	3.019
64.18	2.854
64.4	1.697
64.62	4.583
64.84	32.416
65.06	15.337
65.28	1.334
65.5	7.314
65.72	9.489
65.94	15.896
66.16	16.141
66.38	1.428
66.6	5.93
66.82	4.184
67.04	2.684
67.26	3.918
67.48	2.133
67.7	0.737
67.92	4.131
68.14	0.859
68.36	5.706
68.58	0.791
68.8	3.786
69.02	2.457
69.24	10.356
69.46	4.022
69.68	7.928
69.9	4.872
70.12	0.891
70.34	6.998
70.56	12.121
70.78	4.171
71	0.168
71.22	4.322
71.44	2.511
71.66	1.518
71.88	0.563
72.1	1.495
72.32	4.48
72.54	2.296
72.76	13.117
72.98	6.122
73.2	12.095
73.42	4.076
73.64	4.002
73.86	4.971
74.08	11.093
74.3	5.309
74.52	4.459
74.74	4.727
74.96	1.889
75.18	1.821
75.4	0.795
75.62	0.83
75.84	1.59
76.06	3.582
76.28	3.407
76.5	7.28
76.72	10.007
76.94	0.101
77.16	1.308
77.38	8.704
77.6	5.99
77.82	6.137
78.04	2.449
78.26	0.641
78.48	2.744
78.7	1.906
78.92	5.033
79.14	5.17
79.36	5.451
79.58	5.54
79.8	2.509
80.02	1.348
80.24	5.074
80.46	1.842
80.68	3.649
80.9	4.459
81.12	1.391
81.34	5.392
81.56	2.238
81.78	11.917
82	8.064
82.22	4.252
82.44	4.132
82.66	1.079
82.88	0
83.1	4.918
83.32	2.745
83.54	3.731
83.76	0.508
83.98	10.405
84.2	15.205
84.42	11.993
84.64	2.884
84.86	8.898
85.08	10.211
85.3	4.411
85.52	8.625
85.74	8.841
85.96	6.083
86.18	2.369
86.4	0.368
86.62	7.88
86.84	3.023
87.06	2.172
87.28	3.192
87.5	3.213
87.72	3.3
87.94	3.397
88.16	2.539
88.38	1.636
88.6	1.675
88.82	5.613
89.04	2.798
89.26	2.726
89.48	0.813
89.7	4.836
89.92	1.031
