Measurement: Powder, Xray Data XY Processed
Mineral: Calcurmolite
Rruff sample: R070028
Ideal chemistry: (Ca_1-x_Na_x_)_2_(U^6+^O_2_)_3_(Mo^6+^O_4_)_2_(OH)_6-x_nH_2_O
Locality: Gornoe, Transbaikal region, Russia
Source: Michael Scott
Description: Lemon-yellow massive
Diffraction sample description: Powder, using Mo radiation
x	intensity
4.89	0
4.97	5.51976
5.05	145.956
5.13	515.524
5.21	1024.79
5.29	1443.97
5.37	1473.13
5.45	1071.31
5.53	599.582
5.61	267.932
5.69	108.882
5.77	34.0437
5.85	1.89354
5.93	2.68192
6.01	0.975137
6.09	3.39465
6.17	3.58327
6.25	0.462487
6.33	0.765852
6.41	5.96355
6.49	41.5267
6.57	52.6807
6.65	66.979
6.73	41.3216
6.81	44.502
6.89	48.6069
6.97	45.1796
7.05	41.4365
7.13	38.3035
7.21	47.8361
7.29	25.8314
7.37	10.808
7.45	1.42118
7.53	1.35525
7.61	0.293032
7.69	0.666086
7.77	0.209061
7.85	4.54253
7.93	0.329061
8.01	0.188937
8.09	7.66561
8.17	8.49727
8.25	0.861292
8.33	0.017409
8.41	1.03129
8.49	10.2102
8.57	21.7283
8.65	24.0544
8.73	75.9445
8.81	81.7691
8.89	96.7048
8.97	82.1222
9.05	65.6429
9.13	47.9252
9.21	25.5863
9.29	11.882
9.37	17.1274
9.45	14.1263
9.53	12.3091
9.61	22.305
9.69	12.212
9.77	10.4255
9.85	1.97935
9.93	1.54807
10.01	5.2711
10.09	25.1967
10.17	58.8784
10.25	102.083
10.33	153.019
10.41	180.706
10.49	214.849
10.57	201.915
10.65	174.368
10.73	110.628
10.81	28.8896
10.89	10.3499
10.97	0.451682
11.05	4.37529
11.13	1.42909
11.21	2.64021
11.29	55.7082
11.37	186.546
11.45	431.16
11.53	630.455
11.61	601.928
11.69	397.055
11.77	234.924
11.85	204.966
11.93	222.662
12.01	290.415
12.09	394.967
12.17	468.955
12.25	443.708
12.33	364.843
12.41	342.594
12.49	432.417
12.57	508.729
12.65	608.698
12.73	788.639
12.81	937.36
12.89	828.037
12.97	678.387
13.05	644.5
13.13	702.467
13.21	573.333
13.29	363.093
13.37	174.596
13.45	59.4223
13.53	36.4832
13.61	5.34215
13.69	16.7255
13.77	5.74063
13.85	3.59487
13.93	0.965993
14.01	0.745949
14.09	0.998179
14.17	1.66466
14.25	40.2015
14.33	81.3347
14.41	126.955
14.49	156.273
14.57	179.678
14.65	176.294
14.73	167.711
14.81	157.916
14.89	144.804
14.97	131.302
15.05	129.294
15.13	149.695
15.21	166.877
15.29	168.649
15.37	158.242
15.45	134.464
15.53	104.501
15.61	62.2171
15.69	26.1691
15.77	26.7884
15.85	0.10468
15.93	10.678
16.01	10.893
16.09	2.0182
16.17	13.3079
16.25	2.63958
16.33	11.1231
16.41	13.7125
16.49	9.48878
16.57	7.33458
16.65	0.898285
16.73	1.06234
16.81	3.67588
16.89	2.99943
16.97	0.337911
17.05	0.011353
17.13	0.272685
17.21	0.460319
17.29	1.07506
17.37	2.68797
17.45	9.23284
17.53	2.1005
17.61	2.63023
17.69	4.22731
17.77	0.577071
17.85	5.49979
17.93	3.18829
18.01	0.634815
18.09	0.283559
18.17	0.580032
18.25	0.73368
18.33	0.062566
18.41	12.07
18.49	49.3603
18.57	54.3456
18.65	70.1448
18.73	53.6802
18.81	32.836
18.89	33.2098
18.97	44.9726
19.05	29.6353
19.13	31.1566
19.21	25.0256
19.29	26.0202
19.37	17.8601
19.45	29.8476
19.53	21.9362
19.61	15.6521
19.69	20.5867
19.77	5.09647
19.85	2.44611
19.93	2.20528
20.01	2.20171
20.09	2.05692
20.17	28.8447
20.25	40.8074
20.33	28.2804
20.41	12.7708
20.49	27.3003
20.57	48.4963
20.65	100.241
20.73	180.794
20.81	224.218
20.89	221.141
20.97	196.793
21.05	171.358
21.13	160.295
21.21	150.134
21.29	139.347
21.37	128.595
21.45	122.037
21.53	106.584
21.61	83.1221
21.69	70.8409
21.77	54.1299
21.85	62.5273
21.93	38.4783
22.01	34.8948
22.09	37.8429
22.17	58.3737
22.25	77.4358
22.33	89.4753
22.41	84.3388
22.49	75.9433
22.57	66.5791
22.65	41.6585
22.73	22.9858
22.81	59.1059
22.89	80.5886
22.97	107.459
23.05	113.931
23.13	110.251
23.21	98.1318
23.29	74.3574
23.37	57.2856
23.45	27.5806
23.53	21.2139
23.61	17.8055
23.69	17.1224
23.77	3.72972
23.85	0.611946
23.93	0.374707
24.01	1.45294
24.09	1.52677
24.17	0.699187
24.25	1.25123
24.33	0.280244
24.41	0.109457
24.49	0.162212
24.57	2.89003
24.65	24.1371
24.73	28.4046
24.81	42.1724
24.89	31.5955
24.97	21.3283
25.05	24.5284
25.13	17.658
25.21	24.6388
25.29	45.1291
25.37	28.7508
25.45	30.1455
25.53	40.5017
25.61	44.3056
25.69	72.1407
25.77	55.9633
25.85	73.4895
25.93	70.8652
26.01	33.3803
26.09	27.4205
26.17	32.132
26.25	48.2513
26.33	47.4717
26.41	58.9844
26.49	62.8073
26.57	67.8365
26.65	67.0442
26.73	54.4199
26.81	43.4807
26.89	22.0323
26.97	24.3162
27.05	19.461
27.13	48.6499
27.21	30.3728
27.29	6.1718
27.37	24.8602
27.45	40.4143
27.53	16.3256
27.61	19.6415
27.69	7.69147
27.77	9.88189
27.85	1.57562
27.93	1.47136
28.01	3.22043
28.09	0.615534
28.17	0.255468
28.25	15.3911
28.33	14.8608
28.41	21.7439
28.49	1.0575
28.57	0.292612
28.65	8.76501
28.73	1.53696
28.81	27.0421
28.89	0.155749
28.97	1.55296
29.05	42.0573
29.13	28.289
29.21	3.35163
29.29	30.4711
29.37	27.869
29.45	36.974
29.53	45.9685
29.61	30.7817
29.69	19.757
29.77	9.5573
29.85	31.2955
29.93	19.1214
30.01	18.4103
30.09	29.1624
30.17	29.493
30.25	14.2389
30.33	0.18449
30.41	7.86193
30.49	12.6694
30.57	18.39
30.65	13.9764
30.73	22.3049
30.81	1.33047
30.89	1.56301
30.97	0.886712
31.05	16.0252
31.13	19.2005
31.21	24.1922
31.29	38.8671
31.37	52.269
31.45	62.8326
31.53	51.1028
31.61	43.9993
31.69	26.3236
31.77	44.7581
31.85	24.348
31.93	23.8098
32.01	59.7633
32.09	29.5338
32.17	34.2634
32.25	14.5026
32.33	24.4152
32.41	34.4475
32.49	22.8593
32.57	34.4294
32.65	36.2006
32.73	49.3736
32.81	60.5384
32.89	23.886
32.97	34.2916
33.05	29.3115
33.13	21.7492
33.21	16.2973
33.29	6.58679
33.37	7.88788
33.45	14.3951
33.53	2.92009
33.61	23.2712
33.69	24.8706
33.77	6.13212
33.85	19.9468
33.93	15.038
34.01	0.272689
34.09	31.0681
34.17	11.5073
34.25	9.00573
34.33	0.203898
34.41	17.0552
34.49	36.3329
34.57	9.43034
34.65	18.8082
34.73	4.16572
34.81	0.024783
34.89	0.022094
34.97	5.59959
35.05	8.91621
