Measurement: Powder, Xray Data XY Processed
Mineral: Calderonite
Rruff sample: R060427
Ideal chemistry: Pb^2+^_2_Fe^3+^(V^5+^O_4_)_2_(OH)
Locality: Las Colmenitas mine, Santa Marta, Badajoz, Extremadura, Spain
Source: Michael Scott
Description: Sheaf of brown bladed crystals
Diffraction sample description: Single crystal, powder profile is calculated
Measured chemistry: (Pb_1.90_Cu_0.08_Zn_0.02_)_Σ=2_(Fe^3+^_0.84_Cr_0.14_Al_0.02_)_Σ=1_((V_0.98_As_0.01_P_0.01_)_Σ=1_O_4_)_2_(OH); OH estimated by difference and charge balance
Cell parameters: a: 7.62(2) b: 6.08(1) c: 8.88(2) alpha: 90 beta: 112.16(6) gamma: 90 volume: 381(1) crystal system: monoclinic
x	intensity
5	0
5.22	0
5.44	0
5.66	0
5.88	0
6.1	0
6.32	0
6.54	0
6.76	0
6.98	0
7.2	0
7.42	0
7.64	0
7.86	0
8.08	0
8.3	0
8.52	0
8.74	0
8.96	0
9.18	0
9.4	0
9.62	0
9.84	0
10.06	0
10.28	0
10.5	0
10.72	10.624
10.94	0
11.16	0
11.38	0
11.6	0
11.82	0
12.04	0
12.26	0
12.48	0.168
12.7	0
12.92	0
13.14	0.496
13.36	0
13.58	0
13.8	0
14.02	0
14.24	0
14.46	0
14.68	0
14.9	0
15.12	0
15.34	0
15.56	0
15.78	0
16	0
16.22	0
16.44	0
16.66	0
16.88	0
17.1	0
17.32	0
17.54	0
17.76	0
17.98	0
18.2	21.021
18.42	0
18.64	0
18.86	0
19.08	0
19.3	3.136
19.52	0.303
19.74	0.077
19.96	0
20.18	0
20.4	0.095
20.62	0.004
20.84	0
21.06	0
21.28	0
21.5	0.041
21.72	0.152
21.94	0
22.16	0
22.38	0
22.6	0
22.82	0
23.04	0
23.26	0.004
23.48	0.191
23.7	0
23.92	0
24.14	0
24.36	19.757
24.58	0
24.8	0
25.02	0
25.24	6.542
25.46	0
25.68	0
25.9	0
26.12	13.859
26.34	14.454
26.56	0
26.78	0
27	0
27.22	0
27.44	0
27.66	86.71
27.88	0
28.1	0
28.32	0
28.54	0
28.76	0
28.98	4.829
29.2	1.738
29.42	21.164
29.64	0
29.86	0
30.08	0.475
30.3	10.236
30.52	0
30.74	0
30.96	0
31.18	3.731
31.4	7.133
31.62	0
31.84	0
32.06	4.755
32.28	3.462
32.5	24.543
32.72	1.742
32.94	2.021
33.16	0
33.38	0
33.6	0.974
33.82	0.043
34.04	0
34.26	0
34.48	10.654
34.7	0.004
34.92	0
35.14	0
35.36	0.006
35.58	0.227
35.8	0.001
36.02	3.55
36.24	4.659
36.46	0
36.68	0.82
36.9	0.15
37.12	0
37.34	0
37.56	0
37.78	0.012
38	0.026
38.22	5.797
38.44	0.029
38.66	1.242
38.88	0
39.1	17.433
39.32	0.001
39.54	3.107
39.76	0.266
39.98	3.429
40.2	0
40.42	0
40.64	0
40.86	0.001
41.08	1.237
41.3	0.036
41.52	0.002
41.74	1.011
41.96	0
42.18	0.18
42.4	0.034
42.62	15.118
42.84	0.648
43.06	0
43.28	0.876
43.5	7.559
43.72	0.596
43.94	2.721
44.16	0.147
44.38	0.88
44.6	0.16
44.82	3.138
45.04	0
45.26	0
45.48	0
45.7	0
45.92	0
46.14	1.862
46.36	0.905
46.58	0.77
46.8	0.24
47.02	0
47.24	0.07
47.46	0
47.68	0.082
47.9	4.002
48.12	0
48.34	0
48.56	0.1
48.78	0.38
49	5.991
49.22	0.73
49.44	0
49.66	0.194
49.88	2.891
50.1	4.119
50.32	1.871
50.54	0.37
50.76	0.317
50.98	6.807
51.2	2.973
51.42	0.002
51.64	0.087
51.86	0.556
52.08	2.391
52.3	0.883
52.52	0.071
52.74	0.929
52.96	1.825
53.18	2.529
53.4	0
53.62	12.863
53.84	1.79
54.06	3.461
54.28	4.27
54.5	0.657
54.72	1.154
54.94	0.091
55.16	0
55.38	0.478
55.6	0.754
55.82	1.462
56.04	0.478
56.26	0
56.48	1.403
56.7	0.247
56.92	0.616
57.14	1.878
57.36	0.049
57.58	0.003
57.8	0
58.02	1.273
58.24	0.632
58.46	0.306
58.68	0.003
58.9	0.207
59.12	0.001
59.34	0
59.56	0.012
59.78	0.067
60	0.441
60.22	0.402
60.44	0.133
60.66	0.386
60.88	10.964
61.1	4.778
61.32	0.007
61.54	0.083
61.76	0.001
61.98	0.113
62.2	0.688
62.42	0.011
62.64	0.273
62.86	1.11
63.08	0.082
63.3	0.379
63.52	0.031
63.74	0
63.96	0.002
64.18	0.067
64.4	2.144
64.62	1.821
64.84	0.584
65.06	0.031
65.28	0.001
65.5	0.028
65.72	0.117
65.94	0.046
66.16	0.327
66.38	3.687
66.6	1.423
66.82	0.257
67.04	0.332
67.26	0.011
67.48	0.941
67.7	0.637
67.92	0.007
68.14	5.395
68.36	2.899
68.58	0.218
68.8	0.948
69.02	1.021
69.24	0.248
69.46	4.362
69.68	1.733
69.9	0.619
70.12	0.258
70.34	0.1
70.56	0.323
70.78	1.011
71	1.099
71.22	0.305
71.44	0.038
71.66	0.01
71.88	0.115
72.1	0.175
72.32	0.536
72.54	0.413
72.76	0.573
72.98	0.325
73.2	0.277
73.42	0.131
73.64	0.007
73.86	0.074
74.08	0.087
74.3	0.166
74.52	0.056
74.74	0.001
74.96	0.233
75.18	0.179
75.4	0.114
75.62	0.046
75.84	0.297
76.06	0.515
76.28	0.174
76.5	0.144
76.72	2.917
76.94	1.417
77.16	1.705
77.38	1.329
77.6	0.121
77.82	0.211
78.04	0.737
78.26	1.318
78.48	1.612
78.7	0.545
78.92	0.353
79.14	0.133
79.36	0.203
79.58	0.734
79.8	0.325
80.02	0.097
80.24	0.263
80.46	0.395
80.68	0.22
80.9	2.091
81.12	1.113
81.34	0.017
81.56	0.768
81.78	1.924
82	0.43
82.22	0.256
82.44	0.531
82.66	0.757
82.88	0.377
83.1	0.438
83.32	1.673
83.54	0.179
83.76	1.571
83.98	0.962
84.2	0.88
84.42	0.223
84.64	0.282
84.86	0.275
85.08	0.169
85.3	0.058
85.52	0.015
85.74	0.083
85.96	0.346
86.18	0.414
86.4	0.311
86.62	0.344
86.84	0.124
87.06	0.268
87.28	0.509
87.5	0.104
87.72	0.016
87.94	0.199
88.16	0.318
88.38	0.078
88.6	0.047
88.82	0.04
89.04	0.044
89.26	0.088
89.48	0.113
89.7	0.005
89.92	0.001
