Measurement: Powder, Xray Data XY Processed
Mineral: Caledonite
Rruff sample: R060506
Ideal chemistry: Cu^2+^_2_Pb^2+^_5_(S^6+^O_4_)_3_(CO_3_)(OH)_6_
Locality: Rowley mine, Maricopa County, Arizona, USA
Source: Jim Ricker
Description: Blue prismatic crystals
Diffraction sample description: Single crystal, powder profile is calculated
Cell parameters: a: 20.100(3) b: 7.149(1) c: 6.567(1) alpha: 90 beta: 90 gamma: 90 volume: 943.6(4) crystal system: orthorhombic
x	intensity
5	0
5.22	0
5.44	0
5.66	0
5.88	0
6.1	0
6.32	0
6.54	0
6.76	0
6.98	0
7.2	0
7.42	0
7.64	0
7.86	0
8.08	0
8.3	0
8.52	0
8.74	0.002
8.96	0
9.18	0
9.4	0
9.62	0
9.84	0
10.06	0
10.28	0
10.5	0
10.72	0
10.94	0
11.16	0
11.38	0
11.6	0
11.82	0
12.04	0
12.26	0
12.48	0.001
12.7	0
12.92	0
13.14	6.937
13.36	0
13.58	0
13.8	0
14.02	0
14.24	9.361
14.46	0
14.68	0
14.9	0
15.12	0.002
15.34	0
15.56	0
15.78	0
16	0
16.22	0
16.44	0
16.66	0
16.88	0
17.1	0
17.32	0
17.54	0.016
17.76	0.039
17.98	0
18.2	3.281
18.42	1.781
18.64	0
18.86	49.448
19.08	0.002
19.3	0
19.52	0
19.74	0
19.96	0
20.18	0
20.4	2.634
20.62	0
20.84	0
21.06	0
21.28	0
21.5	0
21.72	0.003
21.94	0
22.16	0
22.38	0
22.6	1.075
22.82	0.004
23.04	0
23.26	0
23.48	0
23.7	0
23.92	0
24.14	0
24.36	0
24.58	0
24.8	0.102
25.02	0.307
25.24	1.023
25.46	1.774
25.68	0.029
25.9	1.895
26.12	0.125
26.34	0
26.56	2.429
26.78	0
27	0.001
27.22	15.516
27.44	0
27.66	0
27.88	0
28.1	0
28.32	14.368
28.54	5.93
28.76	0.913
28.98	1.343
29.2	0
29.42	44.748
29.64	0
29.86	2.177
30.08	0.05
30.3	1.33
30.52	0
30.74	0.104
30.96	0
31.18	1.071
31.4	2.255
31.62	0.013
31.84	0
32.06	0
32.28	0
32.5	29.915
32.72	0.062
32.94	0.499
33.16	0
33.38	0
33.6	9.405
33.82	0.024
34.04	0.474
34.26	0
34.48	0
34.7	0
34.92	7.074
35.14	0.013
35.36	0
35.58	0.001
35.8	1.263
36.02	0
36.24	2.86
36.46	1.262
36.68	0.005
36.9	0.001
37.12	0.349
37.34	0.152
37.56	2.298
37.78	0.691
38	4.379
38.22	1.65
38.44	1.637
38.66	0
38.88	0.244
39.1	0
39.32	3.68
39.54	7.441
39.76	1.485
39.98	0
40.2	2.04
40.42	13.786
40.64	0.362
40.86	0
41.08	0
41.3	0.259
41.52	2.945
41.74	0
41.96	0.005
42.18	0
42.4	5.338
42.62	1.112
42.84	0.557
43.06	0
43.28	0.052
43.5	3.62
43.72	2.902
43.94	0.118
44.16	4.236
44.38	0.809
44.6	3.325
44.82	2.703
45.04	0.148
45.26	0.033
45.48	1.026
45.7	0
45.92	0
46.14	0.012
46.36	0.947
46.58	0
46.8	0.121
47.02	0.946
47.24	4.597
47.46	1.44
47.68	0
47.9	0.006
48.12	0.179
48.34	0
48.56	0
48.78	6.757
49	12.623
49.22	2.3
49.44	0.016
49.66	1.066
49.88	0.016
50.1	0.021
50.32	0
50.54	0.004
50.76	0.938
50.98	1.141
51.2	3.341
51.42	4.377
51.64	0.541
51.86	0.147
52.08	0.095
52.3	0.794
52.52	1.172
52.74	1.567
52.96	1.184
53.18	1.248
53.4	2.138
53.62	0.991
53.84	0.173
54.06	0.596
54.28	1.242
54.5	0.71
54.72	1.619
54.94	7.679
55.16	2.191
55.38	0
55.6	0
55.82	0.001
56.04	1.047
56.26	1.239
56.48	2.343
56.7	0.15
56.92	0.421
57.14	0.024
57.36	0.148
57.58	0.341
57.8	0.323
58.02	0.374
58.24	1.532
58.46	2.271
58.68	0.731
58.9	1.69
59.12	0.783
59.34	0.613
59.56	0.565
59.78	2.03
60	0.322
60.22	1.051
60.44	0.711
60.66	2.105
60.88	0.604
61.1	0.314
61.32	0.132
61.54	0.059
61.76	0.043
61.98	3.268
62.2	2.14
62.42	1.073
62.64	0.113
62.86	3.627
63.08	0.991
63.3	0.124
63.52	0.543
63.74	3.843
63.96	0.73
64.18	3.059
64.4	0.959
64.62	1.035
64.84	0.027
65.06	0.07
65.28	0.041
65.5	0.031
65.72	0.065
65.94	0.245
66.16	0.074
66.38	0.846
66.6	0.394
66.82	1.545
67.04	1.048
67.26	0.295
67.48	0.1
67.7	0.173
67.92	0.082
68.14	0.781
68.36	0.862
68.58	1.795
68.8	0.497
69.02	0.075
69.24	1.588
69.46	0.999
69.68	1.099
69.9	0.318
70.12	1.149
70.34	0.379
70.56	0.134
70.78	0.084
71	1.124
71.22	0.752
71.44	0.536
71.66	0.7
71.88	2.367
72.1	2.176
72.32	0.992
72.54	0.308
72.76	0.144
72.98	0.02
73.2	0.11
73.42	1.18
73.64	0.507
73.86	1.044
74.08	0.598
74.3	0.008
74.52	0.238
74.74	0.304
74.96	0.108
75.18	0.176
75.4	0.085
75.62	0.604
75.84	0.563
76.06	0.298
76.28	1.743
76.5	1.016
76.72	0.118
76.94	0.037
77.16	0.013
77.38	1.297
77.6	1.322
77.82	0.357
78.04	1.036
78.26	4.45
78.48	2.113
78.7	0.003
78.92	0.366
79.14	1.453
79.36	1.059
79.58	0.5
79.8	0.452
80.02	0.738
80.24	0.548
80.46	0.152
80.68	0.387
80.9	0.173
81.12	2.285
81.34	0.733
81.56	0.184
81.78	0.108
82	0.253
82.22	1.714
82.44	1.681
82.66	0.925
82.88	0.638
83.1	0.646
83.32	0.433
83.54	1.447
83.76	0.798
83.98	0.302
84.2	0.168
84.42	0.226
84.64	0.241
84.86	0.353
85.08	0.362
85.3	0.682
85.52	0.334
85.74	0.053
85.96	0.038
86.18	0.112
86.4	1.038
86.62	0.684
86.84	0.63
87.06	1.144
87.28	0.374
87.5	0.632
87.72	0.435
87.94	0.39
88.16	0.447
88.38	0.608
88.6	0.263
88.82	0.213
89.04	0.309
89.26	0.034
89.48	0.359
89.7	0.123
89.92	0.09
