Measurement: Powder, Xray Data XY Processed
Mineral: Cancrinite
Rruff sample: R050352
Ideal chemistry: (Na,Ca,[box])_8_(Al_6_Si_6_)O_24_(CO_3_,S^6+^O_4_)_2_2H_2_O
Locality: York River, quarry #2, Dungannon Township, Ontario, Canada
Source: California Institute of Technology
Description: Pink fragment
Diffraction sample description: Powder
Measured chemistry: (Na_6.07_Ca_1.62_[box]_0.31_)_Σ=8_(Al_0.99_Si_1.01_O_4_)_6_((CO_3_)_0.84_[box]_0.16_)_Σ=2_·2H_2_O
Cell parameters: a: 12.6140(2) b: 12.6140(2) c: 5.1253(2) alpha: 90. beta: 90. gamma: 120. volume: 706.26(2) crystal system: hexagonal
x	intensity
5	0
5.22	12.378
5.44	13.217
5.66	10.933
5.88	9.097
6.1	0.487
6.32	7.618
6.54	12.023
6.76	12.335
6.98	10.662
7.2	10.793
7.42	1.743
7.64	5.219
7.86	13.667
8.08	145.268
8.3	1.404
8.52	2.169
8.74	7.776
8.96	4.394
9.18	13.943
9.4	3.666
9.62	10.803
9.84	3.848
10.06	3.198
10.28	5.937
10.5	7.143
10.72	2.217
10.94	7.247
11.16	0.25
11.38	10.034
11.6	4.923
11.82	8.783
12.04	6.07
12.26	9.288
12.48	8.088
12.7	27.418
12.92	1.954
13.14	3.259
13.36	4.513
13.58	11.588
13.8	10.461
14.02	338.299
14.24	14.673
14.46	14.397
14.68	5.107
14.9	1.743
15.12	4.586
15.34	11.824
15.56	6.11
15.78	9.737
16	2.654
16.22	54.928
16.44	1.66
16.66	5.498
16.88	10.787
17.1	13.069
17.32	10.036
17.54	0.877
17.76	19.049
17.98	0.977
18.2	7.481
18.42	9.388
18.64	7.187
18.86	11.3
19.08	101.227
19.3	23.417
19.52	13.428
19.74	4.523
19.96	10.593
20.18	2.986
20.4	8.062
20.62	4.145
20.84	8.357
21.06	3.333
21.28	5.031
21.5	88.136
21.72	10.174
21.94	3.82
22.16	9.524
22.38	12.326
22.6	8.797
22.82	2.673
23.04	0.389
23.26	4.949
23.48	4.752
23.7	7.602
23.92	1.306
24.14	13.957
24.36	60.083
24.58	158.582
24.8	5.042
25.02	32.177
25.24	3.409
25.46	5.747
25.68	2.764
25.9	6.747
26.12	3.63
26.34	14.449
26.56	0.879
26.78	50.469
27	3.924
27.22	2.196
27.44	7.143
27.66	60.66
27.88	46.464
28.1	4.789
28.32	11.783
28.54	2.804
28.76	13.47
28.98	1.727
29.2	1.243
29.42	41.432
29.64	13.807
29.86	4.092
30.08	47.264
30.3	3.803
30.52	11.238
30.74	5.22
30.96	1.187
31.18	8.876
31.4	8.793
31.62	23.455
31.84	17.249
32.06	9.491
32.28	8.591
32.5	7.386
32.72	71.428
32.94	34.485
33.16	6.544
33.38	9.34
33.6	10.566
33.82	7.575
34.04	8.581
34.26	10.789
34.48	127.814
34.7	13.346
34.92	7.303
35.14	21.403
35.36	8.63
35.58	0.107
35.8	33.495
36.02	24.468
36.24	4.735
36.46	6.922
36.68	8.068
36.9	1.165
37.12	9.297
37.34	80.052
37.56	16.084
37.78	5.221
38	21.355
38.22	9.372
38.44	3.516
38.66	10.699
38.88	9.838
39.1	5.869
39.32	8.031
39.54	12.963
39.76	5.535
39.98	14.457
40.2	3.49
40.42	4.105
40.64	0.113
40.86	1.245
41.08	3.642
41.3	76.628
41.52	16.806
41.74	37.586
41.96	8.494
42.18	0.724
42.4	1.195
42.62	7.222
42.84	14.208
43.06	49.675
43.28	56.849
43.5	4.638
43.72	5.907
43.94	17.485
44.16	1.477
44.38	8.755
44.6	4.715
44.82	12.574
45.04	22.578
45.26	40.587
45.48	7.371
45.7	9.278
45.92	8.128
46.14	6.927
46.36	4.011
46.58	2.98
46.8	2.95
47.02	0.029
47.24	0.224
47.46	18.361
47.68	11.198
47.9	3.195
48.12	3.542
48.34	6.666
48.56	8.65
48.78	26.849
49	2.593
49.22	6.397
49.44	6.516
49.66	4.277
49.88	6.336
50.1	20.325
50.32	9.283
50.54	8.392
50.76	10.43
50.98	55.412
51.2	4.94
51.42	1.217
51.64	1.298
51.86	5.558
52.08	5.729
52.3	48.868
52.52	22.093
52.74	7.502
52.96	0.32
53.18	0.573
53.4	16.902
53.62	7.307
53.84	5.46
54.06	47.045
54.28	20.876
54.5	9.67
54.72	0.313
54.94	1.558
55.16	10.158
55.38	10.023
55.6	17.912
55.82	1.694
56.04	6.661
56.26	1.49
56.48	4.515
56.7	6.591
56.92	0.477
57.14	8.437
57.36	4.359
57.58	0.342
57.8	1.351
58.02	0.608
58.24	39.21
58.46	58.138
58.68	14.531
58.9	0.924
59.12	4.267
59.34	22.538
59.56	5.002
59.78	2.76
60	1.414
60.22	7.599
60.44	12.882
60.66	2.183
60.88	7.552
61.1	1.131
61.32	1.643
61.54	0.079
61.76	3.662
61.98	7.348
62.2	33.491
62.42	15.416
62.64	4.003
62.86	5.918
63.08	5.898
63.3	1.851
63.52	0.89
63.74	1.95
63.96	7.052
64.18	13.344
64.4	29.922
64.62	8.932
64.84	9.032
65.06	3.169
65.28	0.552
65.5	8.724
65.72	0.979
65.94	4.291
66.16	29.697
66.38	12.992
66.6	4.261
66.82	1.08
67.04	0.953
67.26	5.114
67.48	0.86
67.7	8.095
67.92	4.149
68.14	3.135
68.36	6.921
68.58	1.723
68.8	3.573
69.02	0.292
69.24	5.142
69.46	1.905
69.68	6.755
69.9	8.908
70.12	2.835
70.34	7.642
70.56	12.462
70.78	2.658
71	0.714
71.22	2.808
71.44	68.018
71.66	59.991
71.88	3.276
72.1	3.462
72.32	0.597
72.54	1.501
72.76	0.63
72.98	0.249
73.2	11.711
73.42	8.51
73.64	3.8
73.86	4.135
74.08	7.116
74.3	2.008
74.52	10.863
74.74	2.936
74.96	2.953
75.18	2.005
75.4	31.367
75.62	9.385
75.84	15.37
76.06	7.236
76.28	4.89
76.5	3.049
76.72	9.176
76.94	21.575
77.16	5.683
77.38	0.313
77.6	4.505
77.82	7.266
78.04	6.186
78.26	7.129
78.48	1.123
78.7	4.918
78.92	24.105
79.14	16.852
79.36	0.325
79.58	11.694
79.8	2.756
80.02	3.992
80.24	6.097
80.46	2.47
80.68	3.665
80.9	5.849
81.12	6.961
81.34	3.084
81.56	2.306
81.78	4.389
82	8.318
82.22	7.302
82.44	2.11
82.66	5.139
82.88	0.93
83.1	7.798
83.32	0.695
83.54	8.713
83.76	2.429
83.98	11.457
84.2	9.66
84.42	3.606
84.64	7.582
84.86	7.546
85.08	0.461
85.3	2.396
85.52	2.416
85.74	12.481
85.96	10.43
86.18	0.551
86.4	11.209
86.62	6.38
86.84	3.471
87.06	4.61
87.28	3.722
87.5	3.785
87.72	3.004
87.94	3.17
88.16	0.162
88.38	8.457
88.6	1.624
88.82	7.573
89.04	1.697
89.26	4.938
89.48	5.182
89.7	9.551
89.92	7.543
