Measurement: Powder, Xray Data XY Processed
Mineral: Carminite
Rruff sample: R050528
Ideal chemistry: Pb^2+^Fe^3+^_2_(As^5+^O_4_)_2_(OH)_2_
Locality: Las Animas mine, Benjamin Hill, Sonora, Mexico
Source: University of Arizona Mineral Museum
Description: Red prismatic crystals
Diffraction sample description: Single crystal, powder profile is calculated
Measured chemistry: (Pb_0.99_Cu_0.01_)_Σ=1_(Fe^3+^_1.99_Al_0.01_)_Σ=2_(As_1.00_O_4_)_2_(OH)_2_ ; (core) :  (Pb_0.70_Ca_0.30_)_Σ=1_(Fe^3+^_1.99_Al_0.01_)_Σ=2_(As_1.00_O_4_)_2_(OH)_2_ (rim)
Cell parameters: a: 16.566(6) b: 7.569(2) c: 12.276(4) alpha: 90 beta: 90 gamma: 90 volume: 1539(1) crystal system: orthorhombic
x	intensity
5	0
5.22	0
5.44	0
5.66	0
5.88	0
6.1	0
6.32	0
6.54	0
6.76	0
6.98	0
7.2	0
7.42	0
7.64	0
7.86	0
8.08	0
8.3	0
8.52	0
8.74	0
8.96	0
9.18	0
9.4	0
9.62	0
9.84	0
10.06	0
10.28	0
10.5	0
10.72	0.001
10.94	0
11.16	0
11.38	0
11.6	0
11.82	0
12.04	0
12.26	0
12.48	0
12.7	0
12.92	1.445
13.14	0
13.36	0
13.58	0
13.8	0
14.02	0
14.24	0
14.46	0.439
14.68	3.19
14.9	0.001
15.12	0
15.34	0
15.56	0
15.78	0
16	0
16.22	0
16.44	0
16.66	0
16.88	0
17.1	0
17.32	0
17.54	0
17.76	0
17.98	6.103
18.2	0
18.42	0
18.64	0
18.86	0
19.08	0
19.3	6.09
19.52	0.008
19.74	0
19.96	5.769
20.18	0
20.4	0
20.62	0
20.84	0
21.06	0.01
21.28	1.706
21.5	9.633
21.72	0
21.94	0
22.16	0
22.38	0
22.6	0
22.82	0
23.04	0
23.26	0
23.48	0.059
23.7	0
23.92	0
24.14	0
24.36	0
24.58	0.328
24.8	0.03
25.02	0
25.24	7.978
25.46	0.111
25.68	0
25.9	0.561
26.12	0
26.34	0
26.56	0
26.78	0.05
27	0.896
27.22	0
27.44	0
27.66	94.815
27.88	0.001
28.1	0
28.32	0
28.54	0
28.76	0
28.98	0.26
29.2	2.443
29.42	30.842
29.64	0.666
29.86	0.005
30.08	0
30.3	51.225
30.52	0.002
30.74	0
30.96	0.001
31.18	0.006
31.4	0
31.62	0
31.84	4.082
32.06	0.54
32.28	0
32.5	0.02
32.72	0
32.94	17.466
33.16	0
33.38	0
33.6	0
33.82	0
34.04	4.667
34.26	0
34.48	0
34.7	0
34.92	0
35.14	0.017
35.36	36.016
35.58	5.457
35.8	0.228
36.02	3.864
36.24	0
36.46	11.664
36.68	1.787
36.9	6.406
37.12	0
37.34	0
37.56	0
37.78	0.011
38	0
38.22	0
38.44	0
38.66	0
38.88	6.853
39.1	0.758
39.32	10.564
39.54	0
39.76	0
39.98	0.594
40.2	0
40.42	1.606
40.64	0.128
40.86	0
41.08	3.906
41.3	0.028
41.52	0
41.74	0.303
41.96	3.962
42.18	0.05
42.4	1.22
42.62	0.456
42.84	0.001
43.06	0.022
43.28	0.014
43.5	0
43.72	3.524
43.94	0.002
44.16	0.02
44.38	0.064
44.6	0
44.82	0
45.04	0.04
45.26	4.816
45.48	0.444
45.7	1.311
45.92	2.899
46.14	0.02
46.36	3.827
46.58	0
46.8	0.003
47.02	0.165
47.24	0
47.46	0.001
47.68	4.603
47.9	0.001
48.12	1.608
48.34	0
48.56	0
48.78	0
49	0.022
49.22	0
49.44	0.014
49.66	1.896
49.88	0.005
50.1	1.733
50.32	0.051
50.54	8.424
50.76	8.544
50.98	0.331
51.2	0.182
51.42	0
51.64	1.397
51.86	0.489
52.08	0.002
52.3	0.29
52.52	1.827
52.74	0.01
52.96	0.226
53.18	18.698
53.4	1.285
53.62	0.428
53.84	0.127
54.06	2.232
54.28	0.003
54.5	0.6
54.72	7.358
54.94	0.029
55.16	0.218
55.38	0.431
55.6	6.879
55.82	4.433
56.04	6.371
56.26	2.39
56.48	0.669
56.7	0
56.92	0
57.14	13.499
57.36	1.452
57.58	5.962
57.8	0.782
58.02	0.016
58.24	0.297
58.46	0.266
58.68	0
58.9	0
59.12	0.655
59.34	0.237
59.56	1.993
59.78	6.316
60	2.432
60.22	4.389
60.44	4.803
60.66	0.067
60.88	0.28
61.1	2.475
61.32	0.268
61.54	0.852
61.76	2.154
61.98	2.932
62.2	0.397
62.42	2.035
62.64	0.229
62.86	1.773
63.08	1.747
63.3	0.186
63.52	2.59
63.74	0.261
63.96	0.068
64.18	0.232
64.4	6.842
64.62	2.617
64.84	0.293
65.06	3.586
65.28	0.59
65.5	0.179
65.72	0.356
65.94	0.153
66.16	0.168
66.38	0.001
66.6	0.017
66.82	0.226
67.04	0.382
67.26	0.108
67.48	0.058
67.7	0.003
67.92	1.052
68.14	1.255
68.36	0.55
68.58	0.999
68.8	0.061
69.02	6.172
69.24	1.384
69.46	0.033
69.68	0.046
69.9	0.447
70.12	0.407
70.34	0.753
70.56	0.175
70.78	0.015
71	0.004
71.22	0.01
71.44	0.217
71.66	0.075
71.88	0.002
72.1	0.005
72.32	2.577
72.54	1.59
72.76	0
72.98	0
73.2	0.017
73.42	0.365
73.64	0.65
73.86	0.21
74.08	0
74.3	0.392
74.52	1.72
74.74	1.316
74.96	0.542
75.18	0.176
75.4	0.421
75.62	3.466
75.84	1.668
76.06	0.337
76.28	0.18
76.5	1.937
76.72	2.792
76.94	0.849
77.16	2.933
77.38	2.673
77.6	0.693
77.82	0.059
78.04	0.006
78.26	1.115
78.48	0.923
78.7	0.104
78.92	0.023
79.14	0.145
79.36	0.052
79.58	0.475
79.8	2.32
80.02	1.095
80.24	0.015
80.46	0.673
80.68	0.154
80.9	0.013
81.12	1.472
81.34	0.308
81.56	0.006
81.78	0.054
82	0.031
82.22	0.016
82.44	0.739
82.66	0.447
82.88	1.436
83.1	1.975
83.32	1.33
83.54	0.057
83.76	0.094
83.98	0.029
84.2	0.559
84.42	0.467
84.64	0.818
84.86	1.108
85.08	0.717
85.3	0.061
85.52	1.117
85.74	0.101
85.96	1.719
86.18	0.533
86.4	0.58
86.62	0.331
86.84	1.114
87.06	0.42
87.28	0.157
87.5	0.004
87.72	0.053
87.94	0.002
88.16	0
88.38	0.293
88.6	0.029
88.82	0.19
89.04	0.59
89.26	0.134
89.48	0.019
89.7	0.458
89.92	0.45
