Measurement: Powder, Xray Data XY Processed
Mineral: Carnotite
Rruff sample: R070345
Ideal chemistry: K_2_(U^6+^O_2_)_2_(V^5+^O_4_)_2_3H_2_O
Locality: Pick's Delta mine, Delta, Emery County, Utah, USA
Source: Michael Scott
Description: Lemon-yellow fine-grained massive
Diffraction sample description: Powder
x	intensity
5	0
5.22	4.35519
5.44	11.9651
5.66	5.36359
5.88	3.89389
6.1	8.80815
6.32	7.88918
6.54	6.43793
6.76	26.0673
6.98	4.16261
7.2	0.504885
7.42	2.90725
7.64	5.25346
7.86	3.62792
8.08	17.4352
8.3	23.0544
8.52	58.7532
8.74	248.17
8.96	161.285
9.18	65.3296
9.4	26.5114
9.62	15.3804
9.84	5.17912
10.06	1.25666
10.28	7.59302
10.5	3.62807
10.72	3.42151
10.94	5.61039
11.16	6.49349
11.38	5.10851
11.6	8.97213
11.82	4.08662
12.04	7.66149
12.26	3.22904
12.48	0.300592
12.7	0.956871
12.92	13.6916
13.14	14.9915
13.36	29.4202
13.58	85.6215
13.8	202.833
14.02	63.0954
14.24	24.9442
14.46	7.32265
14.68	4.52462
14.9	18.0184
15.12	6.97688
15.34	4.33747
15.56	6.19018
15.78	4.22544
16	6.99244
16.22	5.71657
16.44	6.32762
16.66	6.56766
16.88	16.9353
17.1	11.4045
17.32	16.1271
17.54	43.389
17.76	20.7904
17.98	26.5521
18.2	31.5959
18.42	9.62792
18.64	9.21465
18.86	2.98902
19.08	14.5169
19.3	13.203
19.52	13.3265
19.74	0.573208
19.96	6.11894
20.18	9.79507
20.4	5.48758
20.62	9.06966
20.84	26.0904
21.06	38.4361
21.28	44.0541
21.5	10.813
21.72	5.12194
21.94	15.6783
22.16	3.47936
22.38	18.7269
22.6	12.2591
22.82	1.71657
23.04	0.88361
23.26	7.99394
23.48	2.05982
23.7	20.8174
23.92	17.3627
24.14	17.7709
24.36	0.450274
24.58	3.7475
24.8	14.9378
25.02	21.7943
25.24	37.2881
25.46	45.0637
25.68	28.621
25.9	12.5438
26.12	4.95921
26.34	0.655321
26.56	11.1408
26.78	12.4484
27	15.9999
27.22	14.3271
27.44	41.0322
27.66	68.1822
27.88	29.6514
28.1	9.28644
28.32	11.0027
28.54	48.4127
28.76	75.1033
28.98	42.2477
29.2	20.3365
29.42	32.5301
29.64	17.7206
29.86	16.9513
30.08	7.49417
30.3	0.055523
30.52	0.847795
30.74	11.4967
30.96	13.6499
31.18	13.0498
31.4	4.45066
31.62	16.8801
31.84	24.6548
32.06	9.22207
32.28	7.29237
32.5	18.0582
32.72	20.3461
32.94	18.2865
33.16	23.0296
33.38	5.86915
33.6	7.36186
33.82	1.10117
34.04	3.94712
34.26	8.81166
34.48	18.8517
34.7	20.3228
34.92	24.5483
35.14	37.8011
35.36	26.0582
35.58	0.386236
35.8	6.10501
36.02	16.6924
36.24	19.7938
36.46	0.43577
36.68	11.4779
36.9	12.2314
37.12	1.45594
37.34	3.10813
37.56	3.57003
37.78	10.124
38	2.5747
38.22	12.0652
38.44	14.2622
38.66	3.99166
38.88	0.377661
39.1	15.4717
39.32	7.00228
39.54	13.9274
39.76	9.11955
39.98	0.408015
40.2	7.0424
40.42	2.54236
40.64	1.42464
40.86	0.489271
41.08	12.5899
41.3	7.22358
41.52	9.43064
41.74	18.2002
41.96	35.4181
42.18	21.8543
42.4	22.0806
42.62	19.4377
42.84	17.7042
43.06	7.57403
43.28	10.5646
43.5	12.3687
43.72	0.971157
43.94	4.2158
44.16	14.0156
44.38	10.8927
44.6	20.5397
44.82	11.2251
45.04	13.6005
45.26	17.0007
45.48	17.834
45.7	8.69533
45.92	10.8597
46.14	0.416718
46.36	2.06415
46.58	19.7913
46.8	18.0866
47.02	19.7981
47.24	2.77627
47.46	8.62548
47.68	15.8648
47.9	20.7702
48.12	14.5092
48.34	13.8038
48.56	12.1712
48.78	1.65909
49	6.0262
49.22	8.42751
49.44	13.0726
49.66	3.38363
49.88	6.64553
50.1	17.197
50.32	4.66563
50.54	6.66033
50.76	16.564
50.98	0.535927
51.2	7.98058
51.42	10.6198
51.64	7.33031
51.86	20.9543
52.08	10.7729
52.3	4.96441
52.52	9.31696
52.74	1.58816
52.96	9.9653
53.18	4.88523
53.4	5.77683
53.62	2.53011
53.84	0.378178
54.06	5.92965
54.28	19.685
54.5	16.389
54.72	16.9167
54.94	14.3946
55.16	1.45282
55.38	5.15344
55.6	7.15089
55.82	4.25816
56.04	6.3466
56.26	1.46596
56.48	7.68404
56.7	6.90081
56.92	8.24639
57.14	13.7885
57.36	3.20606
57.58	14.1892
57.8	10.3519
58.02	6.69884
58.24	1.16953
58.46	15.9866
58.68	11.5258
58.9	6.94585
59.12	15.079
59.34	8.37809
59.56	6.97265
59.78	5.6429
60	8.31742
60.22	1.96597
60.44	17.6479
60.66	8.29219
60.88	13.6237
61.1	15.0091
61.32	11.6027
61.54	10.989
61.76	25.3437
61.98	21.684
62.2	5.34314
62.42	8.09933
62.64	4.96404
62.86	1.60647
63.08	5.71695
63.3	7.17099
63.52	6.37518
63.74	4.95867
63.96	9.95079
64.18	13.4495
64.4	11.3246
64.62	7.16524
64.84	1.48412
65.06	8.37975
65.28	3.35374
65.5	6.26113
65.72	5.01309
65.94	7.95383
66.16	9.95627
66.38	11.2686
66.6	4.40099
66.82	7.45815
67.04	11.6359
67.26	11.1161
67.48	4.23359
67.7	13.5041
67.92	2.96993
68.14	12.2343
68.36	2.87048
68.58	7.60611
68.8	2.21633
69.02	9.25372
69.24	7.15606
69.46	8.00874
69.68	7.27805
69.9	16.9544
70.12	11.0502
70.34	18.6364
70.56	12.757
70.78	7.76913
71	8.27226
71.22	4.91704
71.44	6.3102
71.66	3.31236
71.88	9.23656
72.1	12.3928
72.32	0.539196
72.54	5.10794
72.76	17.5125
72.98	1.70373
73.2	4.10529
73.42	11.3749
73.64	7.71498
73.86	11.1174
74.08	6.31612
74.3	1.60586
74.52	6.65218
74.74	3.3841
74.96	10.1211
75.18	8.25775
75.4	9.56908
75.62	0.677467
75.84	11.0206
76.06	7.22518
76.28	21.3817
76.5	16.397
76.72	3.58087
76.94	1.66476
77.16	4.68823
77.38	15.272
77.6	9.95129
77.82	6.09968
78.04	13.141
78.26	4.00097
78.48	13.144
78.7	3.22403
78.92	0.532241
79.14	10.6008
79.36	7.27446
79.58	6.1406
79.8	2.19407
80.02	0.508369
80.24	9.393
80.46	10.5024
80.68	10.592
80.9	4.49667
81.12	2.44029
81.34	4.84591
81.56	8.06226
81.78	6.39806
82	4.69799
82.22	0.889451
82.44	12.5169
82.66	15.8654
82.88	7.86371
83.1	2.92039
83.32	8.94425
83.54	12.9517
83.76	2.51214
83.98	1.37284
84.2	5.12765
84.42	8.0065
84.64	11.7366
84.86	3.65484
85.08	2.44243
85.3	11.9476
85.52	1.16708
85.74	19.4225
85.96	3.62091
86.18	5.44569
86.4	7.57193
86.62	5.74226
86.84	14.2455
87.06	3.34574
87.28	5.98138
87.5	13.7645
87.72	5.69833
87.94	11.7447
88.16	7.82117
88.38	14.8193
88.6	13.9293
88.82	3.94662
89.04	6.59899
89.26	5.76769
89.48	10.0911
89.7	0.321155
89.92	7.54985
