Measurement: Powder, Xray Data XY Processed
Mineral: Carnallite
Rruff sample: R050353
Ideal chemistry: KMgCl_3_6H_2_O
Locality: Strassfurt, Germany
Source: California Institute of Technology
Description: Colorless single crystals and grains associated with halite, sylvite, and anhydrite.
Diffraction sample description: Powder
Cell parameters: a: 16.132(3) b: 22.517(2) c: 9.572(1) alpha: 90 beta: 90 gamma: 90 volume: 3476.7(9) crystal system: orthorhombic
x	intensity
5	0
5.22	5.154
5.44	12.906
5.66	4.515
5.88	2.371
6.1	10.629
6.32	4.99
6.54	17.83
6.76	6.912
6.98	8.924
7.2	7.95
7.42	2.931
7.64	7.768
7.86	3.652
8.08	0.31
8.3	0.264
8.52	10.385
8.74	7.76
8.96	6.443
9.18	7.104
9.4	4.909
9.62	0.009
9.84	5.071
10.06	5.239
10.28	7.549
10.5	0.037
10.72	2.044
10.94	1.403
11.16	8.65
11.38	0.94
11.6	4.353
11.82	0.167
12.04	7.743
12.26	1.522
12.48	1.357
12.7	0.286
12.92	2.008
13.14	5.276
13.36	2.253
13.58	5.213
13.8	2.03
14.02	3.781
14.24	1.619
14.46	0.475
14.68	3.176
14.9	7.274
15.12	2.436
15.34	4.423
15.56	5.633
15.78	4.873
16	5.899
16.22	9.096
16.44	5.205
16.66	4.255
16.88	1.927
17.1	5.097
17.32	1.536
17.54	2.517
17.76	8.37
17.98	3.109
18.2	0.693
18.42	5.781
18.64	7.874
18.86	5.813
19.08	14.812
19.3	3.898
19.52	2.578
19.74	1.554
19.96	0.098
20.18	1.332
20.4	4.545
20.62	2.878
20.84	3.784
21.06	1.602
21.28	1.892
21.5	0.087
21.72	3.921
21.94	1.783
22.16	1.479
22.38	0.133
22.6	0.233
22.82	1.834
23.04	13.048
23.26	3.106
23.48	10.916
23.7	12.457
23.92	0.197
24.14	1.84
24.36	7.733
24.58	6.509
24.8	19.744
25.02	5.082
25.24	4.744
25.46	39.896
25.68	13.781
25.9	4.677
26.12	6.596
26.34	3.266
26.56	0.055
26.78	7.106
27	13.752
27.22	12.048
27.44	44.401
27.66	3.001
27.88	2.031
28.1	12.39
28.32	47.366
28.54	47.336
28.76	2.611
28.98	6.45
29.2	3.683
29.42	4.565
29.64	0.408
29.86	0.876
30.08	14.04
30.3	0.214
30.52	35.225
30.74	13.981
30.96	7.902
31.18	3.114
31.4	40.712
31.62	38.515
31.84	319.013
32.06	5.934
32.28	0.128
32.5	0.275
32.72	0.05
32.94	5.465
33.16	1.145
33.38	0.394
33.6	0.424
33.82	4.528
34.04	9.061
34.26	3.193
34.48	3.171
34.7	4.416
34.92	10.523
35.14	6.449
35.36	3.369
35.58	3.647
35.8	2.967
36.02	2.715
36.24	7.407
36.46	5.253
36.68	2.307
36.9	0.021
37.12	2.213
37.34	0.21
37.56	3.686
37.78	10.651
38	2.544
38.22	4.475
38.44	99.609
38.66	2.627
38.88	14.902
39.1	7.464
39.32	1.839
39.54	0.303
39.76	1.548
39.98	0.151
40.2	5.422
40.42	4.128
40.64	105.102
40.86	23.457
41.08	8.683
41.3	4.367
41.52	4.392
41.74	0.685
41.96	5.119
42.18	3.328
42.4	14.346
42.62	20.571
42.84	0.054
43.06	3.433
43.28	5.039
43.5	5.101
43.72	0.021
43.94	8.261
44.16	0.222
44.38	10.602
44.6	0.398
44.82	7.305
45.04	11.116
45.26	12.346
45.48	156.351
45.7	48.187
45.92	5.949
46.14	0.15
46.36	3.556
46.58	3.704
46.8	3.076
47.02	11.278
47.24	5.769
47.46	0.331
47.68	3.394
47.9	6.317
48.12	2.193
48.34	6.316
48.56	17.213
48.78	5.911
49	8.785
49.22	1.66
49.44	1.87
49.66	2.663
49.88	1.06
50.1	8.356
50.32	26.658
50.54	0.454
50.76	12.076
50.98	2.348
51.2	1.433
51.42	6.833
51.64	7.069
51.86	5.224
52.08	6.353
52.3	8.29
52.52	3.598
52.74	0.442
52.96	1.32
53.18	4.528
53.4	0.186
53.62	0.048
53.84	0.078
54.06	6.049
54.28	2.089
54.5	0.086
54.72	0.015
54.94	4.776
55.16	0.665
55.38	0.486
55.6	4.253
55.82	3.92
56.04	2.962
56.26	3.994
56.48	42.148
56.7	25.021
56.92	4.886
57.14	4.082
57.36	1.252
57.58	3.286
57.8	1.407
58.02	4.564
58.24	8.58
58.46	3.417
58.68	21.487
58.9	11.474
59.12	2.518
59.34	3.751
59.56	1.001
59.78	0.075
60	0.194
60.22	0.332
60.44	3.32
60.66	2.618
60.88	0.419
61.1	0.143
61.32	5.28
61.54	4.51
61.76	4.382
61.98	4.128
62.2	0.051
62.42	3.873
62.64	3.731
62.86	0.199
63.08	0.193
63.3	0.235
63.52	14.878
63.74	5.821
63.96	5.825
64.18	0.123
64.4	2.065
64.62	0.071
64.84	4.123
65.06	0.255
65.28	2.799
65.5	0.336
65.72	3.192
65.94	3.8
66.16	8.841
66.38	19.805
66.6	24.475
66.82	4.902
67.04	0.079
67.26	3.084
67.48	2.436
67.7	3.909
67.92	3.16
68.14	1.583
68.36	9.786
68.58	3.904
68.8	0.052
69.02	1.948
69.24	6.837
69.46	0.86
69.68	2.954
69.9	2.913
70.12	4.649
70.34	0.583
70.56	0.196
70.78	6.326
71	6.192
71.22	0.537
71.44	0.159
71.66	0.168
71.88	2.126
72.1	2.886
72.32	2.656
72.54	2.502
72.76	0.264
72.98	3.012
73.2	1.002
73.42	3.821
73.64	0.824
73.86	10.611
74.08	4.519
74.3	3.368
74.52	2.329
74.74	0.34
74.96	5.775
75.18	9.013
75.4	31.254
75.62	23.45
75.84	2.425
76.06	1.415
76.28	1.571
76.5	2.983
76.72	3.144
76.94	2.387
77.16	0.154
77.38	1.434
77.6	6.471
77.82	1.513
78.04	1.439
78.26	0.689
78.48	6.654
78.7	1.809
78.92	0.823
79.14	3.008
79.36	1.266
79.58	2.281
79.8	3.298
80.02	0.33
80.24	0.096
80.46	0.276
80.68	3.537
80.9	9.515
81.12	1.464
81.34	6.423
81.56	0.111
81.78	0.104
82	0.892
82.22	9.03
82.44	1.94
82.66	10.728
82.88	1.301
83.1	1.047
83.32	3.831
83.54	0.366
83.76	5.73
83.98	22.007
84.2	10.15
84.42	6.137
84.64	1.118
84.86	2.28
85.08	0.353
85.3	0.062
85.52	3.298
85.74	1.363
85.96	10.494
86.18	0.024
86.4	4.212
86.62	0.967
86.84	4.825
87.06	8.618
87.28	5.56
87.5	1.458
87.72	11.127
87.94	4.082
88.16	4.405
88.38	0.6
88.6	3.746
88.82	1.896
89.04	4.26
89.26	3.721
89.48	4.181
89.7	4.21
89.92	0.587
