Measurement: Powder, Xray Data XY Processed
Mineral: Carrollite
Rruff sample: R050089
Ideal chemistry: Cu^1+^Co^3+^_2_S_4_
Locality: Kambove, Katanga, Democratic Republic of the Congo
Source: Rock Currier
Description: Steel-gray octahedral crystal associated with calcite
Diffraction sample description: Powder
Measured chemistry: (Cu_0.96_Fe^2+^_0.04_)_Σ=1_Co_2.00_S_4.00_ ; the vein is pyrite: (Fe_0.99_Co_0.01_)_Σ=1_S_2.00_
Cell parameters: a: 9.4717(4) b: 9.4717(4) c: 9.4717(4) alpha: 90. beta: 90. gamma: 90. volume: 849.7(1) crystal system: cubic
x	intensity
5	0
5.22	28.182
5.44	22.676
5.66	24.114
5.88	16.983
6.1	11.999
6.32	11.2
6.54	7.06
6.76	16.846
6.98	16.817
7.2	27.401
7.42	36.481
7.64	18.43
7.86	21.441
8.08	19.374
8.3	28.119
8.52	5.243
8.74	32.64
8.96	5.576
9.18	33.215
9.4	17.497
9.62	24.061
9.84	5.291
10.06	1.159
10.28	41.349
10.5	27.964
10.72	25.978
10.94	28.823
11.16	19.755
11.38	22.538
11.6	18.697
11.82	47.791
12.04	25.133
12.26	3.98
12.48	18.214
12.7	21.709
12.92	37.803
13.14	15.709
13.36	2.471
13.58	16.209
13.8	19.154
14.02	45.174
14.24	48.846
14.46	28.172
14.68	31.257
14.9	8.983
15.12	5.27
15.34	10.054
15.56	6.322
15.78	34.439
16	25.763
16.22	118.015
16.44	7.699
16.66	21.984
16.88	1.586
17.1	16.563
17.32	17.108
17.54	32.683
17.76	25.128
17.98	25.639
18.2	29.251
18.42	6.265
18.64	22.865
18.86	9.199
19.08	4.643
19.3	9.832
19.52	14.998
19.74	36.142
19.96	21.402
20.18	16.103
20.4	27.388
20.62	12.842
20.84	26.968
21.06	13.519
21.28	22.927
21.5	22.766
21.72	21.209
21.94	17.779
22.16	40.814
22.38	20.432
22.6	28.846
22.82	14.186
23.04	23.477
23.26	33.06
23.48	34.555
23.7	42.335
23.92	33.973
24.14	19.706
24.36	43.379
24.58	8.52
24.8	11.486
25.02	9.161
25.24	9.936
25.46	4.704
25.68	43.7
25.9	11.217
26.12	16.243
26.34	28.547
26.56	38.664
26.78	29.578
27	27.365
27.22	19.193
27.44	19.125
27.66	4.832
27.88	14.499
28.1	0.588
28.32	10.191
28.54	26.409
28.76	32.925
28.98	52.662
29.2	8.127
29.42	45.334
29.64	11.851
29.86	23.804
30.08	45.871
30.3	28.608
30.52	18.17
30.74	21.726
30.96	51.367
31.18	17.12
31.4	271.095
31.62	29.228
31.84	36.066
32.06	8.863
32.28	18.202
32.5	16.864
32.72	34.866
32.94	12.809
33.16	5.662
33.38	38.414
33.6	2.673
33.82	20.75
34.04	21.779
34.26	21.956
34.48	5.005
34.7	18.364
34.92	30.204
35.14	13.997
35.36	8.758
35.58	45.844
35.8	17.835
36.02	46.176
36.24	27.778
36.46	24.188
36.68	1.363
36.9	4.846
37.12	29.704
37.34	46.102
37.56	8.968
37.78	34.993
38	245.112
38.22	15.196
38.44	0.56
38.66	38.333
38.88	38.308
39.1	8.089
39.32	6.003
39.54	15.626
39.76	43.176
39.98	21.73
40.2	2.622
40.42	3.82
40.64	18.354
40.86	14.258
41.08	29.256
41.3	43.13
41.52	22.379
41.74	25.478
41.96	41.021
42.18	5.014
42.4	37.184
42.62	10.918
42.84	31.273
43.06	22.087
43.28	38.357
43.5	39.045
43.72	6.457
43.94	23.36
44.16	22.664
44.38	15.376
44.6	11.661
44.82	19.694
45.04	16.541
45.26	7.915
45.48	12.387
45.7	28.23
45.92	11.903
46.14	16.928
46.36	10.736
46.58	24.184
46.8	14.953
47.02	40.342
47.24	5.658
47.46	34.218
47.68	16.809
47.9	30.014
48.12	3.14
48.34	40.598
48.56	21.613
48.78	1.128
49	39.768
49.22	29.68
49.44	24.86
49.66	11.012
49.88	22.679
50.1	111.579
50.32	0.378
50.54	5.624
50.76	11.978
50.98	25.824
51.2	34.015
51.42	7.083
51.64	45.153
51.86	1.669
52.08	22.74
52.3	25.848
52.52	52.244
52.74	39.849
52.96	1.784
53.18	61.689
53.4	34.092
53.62	34.431
53.84	20.726
54.06	25.799
54.28	5.852
54.5	28.469
54.72	57.533
54.94	211.351
55.16	42.532
55.38	18.53
55.6	13.133
55.82	20.743
56.04	7.433
56.26	39.464
56.48	18.018
56.7	33.317
56.92	48.505
57.14	5.473
57.36	19.873
57.58	2.876
57.8	5.157
58.02	37.133
58.24	17.671
58.46	43.258
58.68	35.903
58.9	25.887
59.12	32.754
59.34	15.741
59.56	23.262
59.78	17.595
60	34.299
60.22	20.77
60.44	27.26
60.66	28.857
60.88	13.579
61.1	7.274
61.32	8.075
61.54	18.164
61.76	43.704
61.98	10.283
62.2	21.646
62.42	8.045
62.64	8.327
62.86	21.728
63.08	11.748
63.3	6.772
63.52	15.761
63.74	14.775
63.96	7.36
64.18	59.221
64.4	1
64.62	67.731
64.84	45.476
65.06	22.671
65.28	19.376
65.5	42.959
65.72	54.417
65.94	31.692
66.16	21.916
66.38	11.126
66.6	47.63
66.82	43.425
67.04	44.887
67.26	36.167
67.48	17.545
67.7	59.884
67.92	28.15
68.14	35.604
68.36	13.41
68.58	61.314
68.8	26.323
69.02	24.649
69.24	28.765
69.46	25.295
69.68	5.129
69.9	15.555
70.12	22.01
70.34	62.92
70.56	27.309
70.78	18.885
71	18.533
71.22	72.712
71.44	53.939
71.66	20.91
71.88	41.919
72.1	47.902
72.32	30.966
72.54	35.251
72.76	9.608
72.98	26.009
73.2	5.125
73.42	10.197
73.64	15.885
73.86	35.987
74.08	3.503
74.3	23.496
74.52	31.47
74.74	29.246
74.96	44.386
75.18	11.438
75.4	33.989
75.62	12.071
75.84	4.449
76.06	37.821
76.28	31.972
76.5	14.414
76.72	46.98
76.94	26.773
77.16	31.462
77.38	19.449
77.6	51.161
77.82	13.316
78.04	23.36
78.26	7.347
78.48	47.005
78.7	12.598
78.92	20.186
79.14	38.866
79.36	29.702
79.58	41.989
79.8	11.341
80.02	28.822
80.24	0.407
80.46	21.843
80.68	3.46
80.9	28.562
81.12	63.602
81.34	17.814
81.56	38.147
81.78	10.395
82	9.238
82.22	1.339
82.44	25.269
82.66	32.38
82.88	20.191
83.1	37.656
83.32	39.217
83.54	55.912
83.76	26.122
83.98	32.602
84.2	30.602
84.42	40.393
84.64	32.939
84.86	32.509
85.08	15.175
85.3	13.445
85.52	41.9
85.74	21.82
85.96	28.824
86.18	10.234
86.4	37.596
86.62	0.432
86.84	21.291
87.06	48.852
87.28	26.267
87.5	17.062
87.72	25.413
87.94	31.84
88.16	37.086
88.38	48.599
88.6	24.436
88.82	6.626
89.04	16.71
89.26	8.803
89.48	52.246
89.7	27.042
89.92	20.447
