Measurement: Powder, Xray Data XY Processed
Mineral: Carrollite
Rruff sample: R040165
Ideal chemistry: Cu^1+^Co^3+^_2_S_4_
Locality: Katanga, Democratic Republic of the Congo
Source: University of Arizona Mineral Museum
Description: Steel gray octahedral crystals that have a tarnished exterior
Diffraction sample description: Powder
Measured chemistry: (Cu_0.97_Fe_0.03_)Co_1.98_S_4_
Cell parameters: a: 9.4784(1) b: 9.4784(1) c: 9.4784(1) alpha: 90. beta: 90. gamma: 90. volume: 851.54(3) crystal system: cubic
x	intensity
5	0
5.22	13.6924
5.44	22.5683
5.66	20.3118
5.88	7.62875
6.1	44.1546
6.32	43.5678
6.54	11.6802
6.76	22.4468
6.98	32.9473
7.2	34.7436
7.42	21.3224
7.64	17.9334
7.86	17.7816
8.08	14.7679
8.3	21.7637
8.52	3.59879
8.74	5.5854
8.96	0.798195
9.18	18.3709
9.4	21.4773
9.62	21.5542
9.84	20.319
10.06	5.3233
10.28	36.6564
10.5	23.3813
10.72	30.6871
10.94	20.9201
11.16	0.21244
11.38	24.0763
11.6	21.6259
11.82	1.67818
12.04	27.5947
12.26	24.7114
12.48	34.3634
12.7	24.7307
12.92	27.3811
13.14	16.3607
13.36	17.7489
13.58	26.7348
13.8	32.9988
14.02	15.1008
14.24	9.08311
14.46	25.2619
14.68	41.5286
14.9	15.8069
15.12	14.0621
15.34	12.3759
15.56	6.62701
15.78	4.5116
16	1.76953
16.22	31.4521
16.44	29.0866
16.66	19.1826
16.88	20.9639
17.1	2.60332
17.32	39.0148
17.54	9.46096
17.76	12.7667
17.98	14.0922
18.2	12.68
18.42	15.3998
18.64	29.2463
18.86	13.8043
19.08	21.2713
19.3	4.19482
19.52	10.0616
19.74	24.2507
19.96	23.3911
20.18	38.7261
20.4	21.724
20.62	31.7907
20.84	16.1019
21.06	11.7009
21.28	15.5668
21.5	24.2953
21.72	15.1019
21.94	7.21664
22.16	31.7116
22.38	6.20296
22.6	21.018
22.82	3.18704
23.04	31.7174
23.26	9.23
23.48	6.18851
23.7	32.8737
23.92	20.5398
24.14	42.775
24.36	33.8432
24.58	4.29684
24.8	14.797
25.02	21.9319
25.24	21.9687
25.46	30.284
25.68	21.1644
25.9	19.9558
26.12	30.8028
26.34	6.40524
26.56	26.8906
26.78	36.2389
27	21.0816
27.22	21.2882
27.44	20.1873
27.66	44.3327
27.88	0.243515
28.1	13.4776
28.32	32.3321
28.54	20.5543
28.76	2.92253
28.98	8.78359
29.2	2.80484
29.42	7.54866
29.64	13.7219
29.86	5.88252
30.08	33.5078
30.3	37.2071
30.52	14.5164
30.74	32.0331
30.96	31.6491
31.18	33.9109
31.4	186.642
31.62	20.581
31.84	35.6701
32.06	10.963
32.28	22.0533
32.5	10.9812
32.72	25.098
32.94	25.0652
33.16	1.93831
33.38	13.4803
33.6	15.6479
33.82	10.195
34.04	31.7347
34.26	32.2081
34.48	1.1315
34.7	4.02731
34.92	6.02437
35.14	30.7208
35.36	15.51
35.58	27.5595
35.8	8.64818
36.02	27.3603
36.24	1.67972
36.46	4.10522
36.68	13.1888
36.9	35.8554
37.12	45.4983
37.34	3.95239
37.56	48.7208
37.78	27.414
38	111.838
38.22	40.9038
38.44	22.1435
38.66	33.967
38.88	0.578064
39.1	3.81204
39.32	7.30699
39.54	28.2148
39.76	11.8136
39.98	10.4006
40.2	20.6133
40.42	9.51079
40.64	17.2737
40.86	33.2164
41.08	13.641
41.3	15.4823
41.52	18.393
41.74	39.9103
41.96	10.0901
42.18	23.208
42.4	59.3768
42.62	14.8815
42.84	33.3581
43.06	12.2326
43.28	27.8142
43.5	23.8841
43.72	2.66539
43.94	14.6102
44.16	5.8815
44.38	4.76051
44.6	34.5446
44.82	17.3871
45.04	36.8781
45.26	21.9546
45.48	12.3203
45.7	17.9997
45.92	24.2885
46.14	12.1145
46.36	22.3504
46.58	19.5692
46.8	17.218
47.02	87.1703
47.24	37.987
47.46	35.7424
47.68	14.9059
47.9	29.9489
48.12	42.8821
48.34	14.3573
48.56	25.4036
48.78	26.654
49	24.7239
49.22	40.1733
49.44	14.3673
49.66	14.2805
49.88	35.973
50.1	88.5629
50.32	25.1885
50.54	28.7345
50.76	9.16753
50.98	12.0729
51.2	24.1697
51.42	33.6673
51.64	6.03195
51.86	18.6154
52.08	27.9036
52.3	26.8753
52.52	44.7889
52.74	49.3557
52.96	38.7145
53.18	17.0946
53.4	6.98731
53.62	5.66596
53.84	13.7843
54.06	25.0757
54.28	0.897552
54.5	27.6924
54.72	34.1989
54.94	147.214
55.16	0.926743
55.38	0.120468
55.6	5.57748
55.82	13.2919
56.04	17.3171
56.26	10.2894
56.48	15.4082
56.7	22.0828
56.92	16.477
57.14	28.4639
57.36	21.3286
57.58	52.4192
57.8	32.5275
58.02	26.7413
58.24	17.7187
58.46	28.2146
58.68	12.5805
58.9	22.2784
59.12	21.6046
59.34	40.7046
59.56	17.6258
59.78	26.977
60	30.013
60.22	13.688
60.44	11.652
60.66	20.7729
60.88	7.83711
61.1	31.3312
61.32	21.5354
61.54	20.943
61.76	11.0097
61.98	25.2053
62.2	15.3439
62.42	16.0849
62.64	22.1784
62.86	7.92729
63.08	21.7234
63.3	4.54903
63.52	15.809
63.74	24.9248
63.96	24.67
64.18	15.3003
64.4	37.3255
64.62	43.026
64.84	26.9086
65.06	17.7867
65.28	17.8984
65.5	18.9314
65.72	19.7368
65.94	8.8208
66.16	19.5742
66.38	11.6294
66.6	3.49551
66.82	26.8993
67.04	10.9038
67.26	28.713
67.48	20.9951
67.7	15.2423
67.92	4.63184
68.14	25.4002
68.36	28.2887
68.58	18.4866
68.8	48.9018
69.02	3.50923
69.24	16.5562
69.46	26.3149
69.68	42.1
69.9	16.016
70.12	41.1712
70.34	13.2125
70.56	18.8119
70.78	11.0323
71	13.2037
71.22	48.8831
71.44	26.9904
71.66	16.6372
71.88	31.8383
72.1	13.8395
72.32	23.7943
72.54	7.96767
72.76	4.20996
72.98	22.9411
73.2	2.87546
73.42	33.2831
73.64	25.7711
73.86	30.406
74.08	2.83345
74.3	7.54387
74.52	5.99898
74.74	30.6789
74.96	24.8303
75.18	17.914
75.4	41.0915
75.62	4.96205
75.84	11.2826
76.06	31.1312
76.28	12.9183
76.5	32.6185
76.72	20.8035
76.94	11.388
77.16	15.134
77.38	48.3127
77.6	48.6093
77.82	2.06346
78.04	48.5352
78.26	5.10989
78.48	18.0533
78.7	31.0498
78.92	24.3827
79.14	47.3827
79.36	24.5053
79.58	14.6136
79.8	20.1502
80.02	46.8387
80.24	25.0694
80.46	21.3422
80.68	45.3593
80.9	25.581
81.12	33.8315
81.34	41.346
81.56	27.5291
81.78	15.3585
82	30.395
82.22	5.96297
82.44	25.066
82.66	44.2027
82.88	1.81241
83.1	14.1304
83.32	18.5965
83.54	47.3335
83.76	3.37933
83.98	30.0844
84.2	13.4956
84.42	25.252
84.64	36.1941
84.86	24.9125
85.08	23.0374
85.3	33.7921
85.52	34.9272
85.74	16.5343
85.96	3.46587
86.18	49.4328
86.4	9.49934
86.62	39.3352
86.84	40.7585
87.06	27.5425
87.28	40.7461
87.5	25.9865
87.72	36.2808
87.94	24.9989
88.16	4.37146
88.38	20.1916
88.6	27.3124
88.82	34.0476
89.04	33.1099
89.26	27.1543
89.48	23.6338
89.7	30.9549
89.92	16.1116
