Measurement: Powder, Xray Data XY Processed
Mineral: Cassiterite
Rruff sample: R040017
Ideal chemistry: SnO_2_
Locality: Bolivia
Source: University of Arizona Mineral Museum
Description: Dark brown short prismatic single crystals
Diffraction sample description: Powder
Measured chemistry: Sn_1.00_O_2_; trace amounts of Fe
Cell parameters: a: 4.73742(7) b: 4.73742(7) c: 3.18642(8) alpha: 90. beta: 90. gamma: 90. volume: 71.513(2) crystal system: tetragonal
x	intensity
5	0
5.22	8.884
5.44	2.172
5.66	3.88
5.88	4.018
6.1	5.932
6.32	7.702
6.54	6.125
6.76	1.336
6.98	2.281
7.2	3.757
7.42	4.404
7.64	6.755
7.86	5.878
8.08	10.971
8.3	4.313
8.52	3.372
8.74	6.847
8.96	2.084
9.18	2.249
9.4	1.286
9.62	0.33
9.84	3.157
10.06	1.224
10.28	6.214
10.5	3.25
10.72	5.112
10.94	6.092
11.16	0.778
11.38	1.827
11.6	5.884
11.82	11.029
12.04	2.118
12.26	5.222
12.48	2.487
12.7	5.665
12.92	0.716
13.14	0.791
13.36	0.892
13.58	3.928
13.8	1.082
14.02	4.845
14.24	1.78
14.46	2.764
14.68	4.882
14.9	6.734
15.12	1.76
15.34	3.772
15.56	0.778
15.78	2.855
16	3.741
16.22	0.758
16.44	6.833
16.66	1.81
16.88	2.808
17.1	0.77
17.32	5.826
17.54	4.793
17.76	10.713
17.98	2.848
18.2	3.779
18.42	8.806
18.64	1.885
18.86	4.017
19.08	8.069
19.3	3.084
19.52	4.014
19.74	1.874
19.96	5.878
20.18	3.891
20.4	3.756
20.62	7.82
20.84	1.829
21.06	1.747
21.28	6.613
21.5	0.771
21.72	3.773
21.94	5.836
22.16	7.855
22.38	5.859
22.6	2.867
22.82	1.859
23.04	7.865
23.26	2.876
23.48	3.974
23.7	2.034
23.92	7.948
24.14	1.139
24.36	4.091
24.58	4.074
24.8	6.759
25.02	0.532
25.24	0.131
25.46	0.661
25.68	0.754
25.9	3.776
26.12	6.218
26.34	23.753
26.56	291.357
26.78	111.451
27	11.364
27.22	9.582
27.44	0.084
27.66	7.176
27.88	7.608
28.1	1.079
28.32	4.439
28.54	1.772
28.76	3.224
28.98	8.387
29.2	4.379
29.42	6.429
29.64	4.362
29.86	2.511
30.08	3.78
30.3	4.693
30.52	3.711
30.74	1.974
30.96	2.141
31.18	5.193
31.4	2.119
31.62	0.984
31.84	1.168
32.06	2.508
32.28	1.974
32.5	4.471
32.72	4.036
32.94	1.628
33.16	3.946
33.38	3.547
33.6	12.115
33.82	103.285
34.04	248.534
34.26	15.852
34.48	11.047
34.7	3.423
34.92	2.861
35.14	3.228
35.36	1.633
35.58	2.94
35.8	2.26
36.02	0.304
36.24	5.258
36.46	1.084
36.68	2.495
36.9	4.305
37.12	0.945
37.34	3.65
37.56	4.573
37.78	27.314
38	518.143
38.22	31.991
38.44	3.227
38.66	2.606
38.88	2.868
39.1	25.165
39.32	10.519
39.54	4.981
39.76	4.351
39.98	3.554
40.2	4.112
40.42	6.533
40.64	2.726
40.86	5.779
41.08	6.676
41.3	3.542
41.52	6.553
41.74	1.53
41.96	0.59
42.18	4.501
42.4	2.484
42.62	9.27
42.84	12.18
43.06	9.213
43.28	3.263
43.5	1.397
43.72	0.596
43.94	2.65
44.16	6.749
44.38	6.925
44.6	3.81
44.82	0.792
45.04	4.762
45.26	2.752
45.48	2.706
45.7	1.738
45.92	1.604
46.14	1.482
46.36	0.528
46.58	5.492
46.8	6.475
47.02	1.527
47.24	4.533
47.46	3.589
47.68	4.558
47.9	5.603
48.12	3.693
48.34	1.614
48.56	3.643
48.78	5.538
49	1.367
49.22	1.888
49.44	5.86
49.66	0.634
49.88	0.207
50.1	3.738
50.32	6.198
50.54	0.505
50.76	2.996
50.98	7.358
51.2	9.027
51.42	17.718
51.64	66.455
51.86	431.623
52.08	72.799
52.3	12.2
52.52	5.429
52.74	6.818
52.96	7.324
53.18	3.695
53.4	2.986
53.62	7.207
53.84	0.403
54.06	6.556
54.28	8.444
54.5	3.14
54.72	55.214
54.94	116.501
55.16	10.748
55.38	3.01
55.6	3.192
55.82	4.374
56.04	0.727
56.26	1.126
56.48	2.981
56.7	1.028
56.92	2.056
57.14	1.992
57.36	3.863
57.58	3.643
57.8	24.351
58.02	31.355
58.24	6.408
58.46	0.29
58.68	2.326
58.9	2.447
59.12	2.554
59.34	3.814
59.56	1.887
59.78	6.946
60	4.988
60.22	0.018
60.44	1.686
60.66	3.446
60.88	3.214
61.1	1.004
61.32	4.729
61.54	11.469
61.76	23.259
61.98	81.254
62.2	27.252
62.42	6.224
62.64	6.151
62.86	4.496
63.08	1.68
63.3	0.547
63.52	2.346
63.74	3.088
63.96	7.803
64.18	0.401
64.4	8.87
64.62	19.334
64.84	65.777
65.06	14.445
65.28	6.698
65.5	5.608
65.72	11.652
65.94	58.12
66.16	84.713
66.38	22.234
66.6	1.758
66.82	2.419
67.04	5.078
67.26	0.262
67.48	1.39
67.7	2.893
67.92	2.36
68.14	1.732
68.36	3.892
68.58	0.831
68.8	0.928
69.02	0.046
69.24	2.926
69.46	2.822
69.68	6.721
69.9	6.506
70.12	6.383
70.34	0.244
70.56	2.121
70.78	5.935
71	5.888
71.22	20.927
71.44	23.985
71.66	11.01
71.88	5.242
72.1	2.428
72.32	3.682
72.54	1.932
72.76	3.091
72.98	3.314
73.2	3.475
73.42	3.662
73.64	3.606
73.86	1.53
74.08	4.41
74.3	4.398
74.52	9.339
74.74	4.2
74.96	7.071
75.18	2.001
75.4	2.978
75.62	1.043
75.84	0.941
76.06	0.907
76.28	1.957
76.5	0.98
76.72	3.868
76.94	3.66
77.16	1.478
77.38	0.263
77.6	3.042
77.82	0.264
78.04	4.427
78.26	1.198
78.48	6.98
78.7	52.084
78.92	43.047
79.14	7
79.36	4.005
79.58	10.2
79.8	0.239
80.02	2.276
80.24	0.32
80.46	0.391
80.68	5.489
80.9	1.426
81.12	20.39
81.34	15.479
81.56	5.825
81.78	1.924
82	1.906
82.22	1.959
82.44	0.993
82.66	2.039
82.88	4.033
83.1	1.984
83.32	2.899
83.54	11.009
83.76	116.869
83.98	37.658
84.2	19.705
84.42	11.92
84.64	3.043
84.86	2.113
85.08	3.224
85.3	0.359
85.52	0.668
85.74	0.347
85.96	3.157
86.18	2.094
86.4	3.853
86.62	0.619
86.84	0.533
87.06	5.573
87.28	32.816
87.5	14.924
87.72	3.361
87.94	2.282
88.16	4.598
88.38	3.922
88.6	3.155
88.82	3.999
89.04	3.799
89.26	5.863
89.48	17.648
89.7	14.365
89.92	20.089
