Measurement: Powder, Xray Data XY Processed
Mineral: Cassiterite
Rruff sample: R050502
Ideal chemistry: SnO_2_
Locality: Redruth, Cornwall, England
Source: California Institute of Technology
Description: Black crystals associated with colorless quartz and grey stannite.
Diffraction sample description: Powder
Measured chemistry: SnO_2_
Cell parameters: a: 4.73692(6) b: 4.73692(6) c: 3.18516(8) alpha: 90. beta: 90. gamma: 90. volume: 71.470(2) crystal system: tetragonal
x	intensity
5	0
5.22	10.533
5.44	12.542
5.66	13.37
5.88	10.603
6.1	6.044
6.32	6.392
6.54	2.33
6.76	1.908
6.98	1.434
7.2	8.215
7.42	2.988
7.64	11.501
7.86	4.988
8.08	7.354
8.3	1.866
8.52	2.604
8.74	14.18
8.96	23.711
9.18	4.934
9.4	5.411
9.62	0.402
9.84	2.406
10.06	3.582
10.28	8.772
10.5	5.864
10.72	3.949
10.94	6.768
11.16	5.803
11.38	4.715
11.6	3.886
11.82	7.754
12.04	5.885
12.26	1.89
12.48	4.822
12.7	5.863
12.92	3.867
13.14	3.881
13.36	2.952
13.58	3.897
13.8	4.981
14.02	3.93
14.24	3.89
14.46	4.831
14.68	2.913
14.9	2.014
15.12	2.229
15.34	4.203
15.56	1.305
15.78	2.458
16	5.577
16.22	2.53
16.44	4.522
16.66	3.57
16.88	6.56
17.1	14.481
17.32	2.505
17.54	7.296
17.76	12.301
17.98	3.222
18.2	7.176
18.42	6.118
18.64	1.099
18.86	3.004
19.08	2.165
19.3	3.148
19.52	1.211
19.74	3.126
19.96	2.241
20.18	1.558
20.4	4.573
20.62	0.362
20.84	0.372
21.06	2.383
21.28	1.426
21.5	4.353
21.72	6.368
21.94	2.3
22.16	5.329
22.38	2.036
22.6	3.958
22.82	8.13
23.04	7.13
23.26	8.093
23.48	3.021
23.7	3
23.92	9.14
24.14	0.457
24.36	0.401
24.58	4.166
24.8	3.01
25.02	4.638
25.24	4.168
25.46	0.807
25.68	1.436
25.9	3.094
26.12	3.717
26.34	13.269
26.56	79.857
26.78	57.824
27	11.915
27.22	7.006
27.44	6.092
27.66	6.243
27.88	3.621
28.1	7.928
28.32	3.297
28.54	17.513
28.76	3.653
28.98	4.831
29.2	6.845
29.42	2.901
29.64	3.051
29.86	9.325
30.08	2.574
30.3	9.461
30.52	5.532
30.74	2.664
30.96	1.719
31.18	1.846
31.4	1.717
31.62	6.707
31.84	1.93
32.06	5.698
32.28	2.439
32.5	2.175
32.72	1.953
32.94	3.57
33.16	0.767
33.38	0.953
33.6	3.962
33.82	34.748
34.04	115.581
34.26	7.648
34.48	4.801
34.7	2.984
34.92	3.127
35.14	8.423
35.36	3.669
35.58	2.914
35.8	5.142
36.02	7.199
36.24	0.659
36.46	5.35
36.68	6.113
36.9	3.955
37.12	0.706
37.34	1.593
37.56	2.462
37.78	12.343
38	89.232
38.22	7.098
38.44	5.148
38.66	7.304
38.88	1.461
39.1	12.908
39.32	3.173
39.54	5.594
39.76	1.844
39.98	1.023
40.2	3.238
40.42	4.41
40.64	0.639
40.86	4.707
41.08	6.595
41.3	0.699
41.52	0.625
41.74	5.577
41.96	1.376
42.18	6.42
42.4	8.454
42.62	1.411
42.84	7.426
43.06	5.412
43.28	1.345
43.5	0.47
43.72	3.365
43.94	8.225
44.16	6.149
44.38	6.068
44.6	2.909
44.82	4.879
45.04	2.791
45.26	5.683
45.48	19.581
45.7	8.667
45.92	3.474
46.14	2.409
46.36	1.355
46.58	2.376
46.8	3.421
47.02	1.464
47.24	4.485
47.46	6.692
47.68	0.874
47.9	6.891
48.12	3.789
48.34	2.004
48.56	8.087
48.78	1.072
49	8.081
49.22	7.277
49.44	4.153
49.66	4.138
49.88	3.998
50.1	1.849
50.32	1.376
50.54	0.424
50.76	5.091
50.98	3.886
51.2	4.797
51.42	6.636
51.64	20.52
51.86	159.49
52.08	15.487
52.3	2.62
52.52	4.713
52.74	6.936
52.96	1.404
53.18	2.707
53.4	5.773
53.62	4.718
53.84	6.736
54.06	3.543
54.28	0.535
54.5	7.219
54.72	24.174
54.94	54.058
55.16	5.934
55.38	1.518
55.6	5.289
55.82	10.475
56.04	0.614
56.26	3.831
56.48	4.044
56.7	2.165
56.92	0.87
57.14	9.334
57.36	0.339
57.58	3.416
57.8	13.542
58.02	9.662
58.24	3.538
58.46	0.296
58.68	3.694
58.9	5.755
59.12	3.078
59.34	1.036
59.56	1.994
59.78	6.088
60	6.17
60.22	1.119
60.44	9.055
60.66	3.957
60.88	3.681
61.1	0.541
61.32	8.408
61.54	1.17
61.76	9.18
61.98	43.309
62.2	8.383
62.42	8.311
62.64	3.399
62.86	1.358
63.08	7.405
63.3	4.661
63.52	1.552
63.74	1.622
63.96	2.109
64.18	6.874
64.4	1.435
64.62	5.152
64.84	29.934
65.06	0.679
65.28	3.577
65.5	0.509
65.72	5.44
65.94	30.784
66.16	31.945
66.38	8.161
66.6	5.462
66.82	2.333
67.04	4.052
67.26	2.62
67.48	2.904
67.7	4.088
67.92	3.183
68.14	1.211
68.36	2.047
68.58	6.101
68.8	2.021
69.02	0.977
69.24	5.119
69.46	4.098
69.68	2.824
69.9	2.754
70.12	3.73
70.34	0.288
70.56	4.695
70.78	2.767
71	1.751
71.22	13.771
71.44	7.794
71.66	6.73
71.88	7.636
72.1	3.707
72.32	2.783
72.54	2.89
72.76	6.201
72.98	2.126
73.2	3.178
73.42	0.28
73.64	5.333
73.86	4.37
74.08	0.364
74.3	0.542
74.52	12.396
74.74	2.388
74.96	5.199
75.18	3.036
75.4	0.985
75.62	1.894
75.84	0.826
76.06	3.044
76.28	3.147
76.5	0.149
76.72	5.028
76.94	1.159
77.16	0.217
77.38	0.798
77.6	2.179
77.82	3.14
78.04	3.102
78.26	6.946
78.48	0.885
78.7	27.956
78.92	22.804
79.14	8.73
79.36	3.817
79.58	2.837
79.8	5.835
80.02	1.841
80.24	2.842
80.46	5.846
80.68	3.771
80.9	4.748
81.12	5.899
81.34	4.906
81.56	9.923
81.78	5.815
82	5.736
82.22	6.927
82.44	1.906
82.66	4.903
82.88	1.896
83.1	4.893
83.32	2.684
83.54	0.786
83.76	15.911
83.98	4.852
84.2	14.985
84.42	8.063
84.64	2.995
84.86	3.219
85.08	2.232
85.3	1.3
85.52	5.363
85.74	4.429
85.96	0.281
86.18	2.026
86.4	2.901
86.62	3.741
86.84	2.66
87.06	6.5
87.28	26.386
87.5	14.52
87.72	4.641
87.94	2.925
88.16	4.988
88.38	3.227
88.6	5.01
88.82	6.387
89.04	5.443
89.26	6.413
89.48	2.728
89.7	6.49
89.92	16.165
