Measurement: Powder, Xray Data XY Processed
Mineral: Catapleiite
Rruff sample: R060198
Ideal chemistry: Na_2_Zr^4+^Si_3_O_9_2H_2_O
Locality: Mont Saint-Hilaire, Rouville County, Quebec, Canada
Source: Royal Ontario Museum
Description: Tan colored pseudohexagonal tabular crystals
Diffraction sample description: Powder
Measured chemistry: (Na_1.92_Ca_0.04_[box]_0.04_)_Σ=2_Zr_1.00_Si_3.00_O_9_·2H_2_O
Cell parameters: a: 7.4186(8) b: 12.830(1) c: 10.0971(9) alpha: 90 beta: 90 gamma: 90 volume: 961.0(1) crystal system: orthorhombic
x	intensity
5	0
5.22	4.615
5.44	7.993
5.66	0.579
5.88	3.008
6.1	5.057
6.32	10.988
6.54	13.712
6.76	11.4
6.98	11.086
7.2	3.111
7.42	5.806
7.64	3.649
7.86	4.436
8.08	0.852
8.3	4.656
8.52	2.921
8.74	3.491
8.96	6.023
9.18	3.333
9.4	6.56
9.62	7.458
9.84	7.671
10.06	7.869
10.28	8.024
10.5	0.977
10.72	4.098
10.94	3.172
11.16	7.033
11.38	8.109
11.6	2.15
11.82	0.644
12.04	3.695
12.26	2.867
12.48	8.64
12.7	7.588
12.92	5.596
13.14	3.406
13.36	6.319
13.58	7.199
13.8	79.207
14.02	26.451
14.24	5.022
14.46	7.169
14.68	4.916
14.9	5.888
15.12	5.863
15.34	3.802
15.56	2.245
15.78	7.708
16	10.66
16.22	9.768
16.44	245.656
16.66	12.634
16.88	4.289
17.1	0.59
17.32	4.661
17.54	2.861
17.76	5.07
17.98	5.349
18.2	2.627
18.42	5.911
18.64	0.103
18.86	3.968
19.08	2.098
19.3	1.216
19.52	1.249
19.74	3.19
19.96	2.426
20.18	2.348
20.4	6.363
20.62	2.274
20.84	9.051
21.06	6.153
21.28	2
21.5	2.894
21.72	4.713
21.94	3.706
22.16	3.706
22.38	71.312
22.6	145.344
22.82	5.097
23.04	2.947
23.26	0.819
23.48	3.608
23.7	3.791
23.92	3.913
24.14	63.98
24.36	4.121
24.58	1.065
24.8	8.254
25.02	1.52
25.24	1.772
25.46	4.003
25.68	9.152
25.9	1.109
26.12	2.081
26.34	6.051
26.56	2.063
26.78	0.817
27	6.886
27.22	0.515
27.44	4.093
27.66	0.005
27.88	44.566
28.1	5.144
28.32	1.8
28.54	5.409
28.76	2.139
28.98	4.71
29.2	124.745
29.42	70.491
29.64	11.952
29.86	52.156
30.08	122.255
30.3	16.669
30.52	2.133
30.74	7.488
30.96	4.77
31.18	2.957
31.4	6.446
31.62	1.437
31.84	1.454
32.06	7.955
32.28	6.969
32.5	4.811
32.72	3.887
32.94	10.704
33.16	157.953
33.38	40.299
33.6	4.409
33.82	6.172
34.04	2.299
34.26	4.41
34.48	2.489
34.7	0.564
34.92	5.617
35.14	4.561
35.36	4.669
35.58	21.57
35.8	3.316
36.02	6.299
36.24	11.305
36.46	2.502
36.68	3.649
36.9	4.667
37.12	20.582
37.34	9.553
37.56	1.389
37.78	6.382
38	5.188
38.22	10.283
38.44	4.407
38.66	0.604
38.88	9.414
39.1	3.495
39.32	4.799
39.54	5.95
39.76	0.974
39.98	3.085
40.2	8.08
40.42	2.152
40.64	5.084
40.86	2.078
41.08	5.036
41.3	20.032
41.52	16.264
41.74	1.184
41.96	3.179
42.18	7.171
42.4	2.151
42.62	6.158
42.84	2.275
43.06	0.207
43.28	7.095
43.5	6.01
43.72	6.224
43.94	6.142
44.16	2.886
44.38	5.786
44.6	0.615
44.82	2.44
45.04	3.214
45.26	11.842
45.48	7.68
45.7	54.533
45.92	30.412
46.14	54.138
46.36	25.069
46.58	0.014
46.8	8.581
47.02	5.96
47.24	8.296
47.46	0.355
47.68	3.14
47.9	4.282
48.12	1.234
48.34	2.205
48.56	4.205
48.78	4.969
49	7.564
49.22	60.461
49.44	54.012
49.66	5.628
49.88	9.29
50.1	0.805
50.32	2.617
50.54	6.465
50.76	4.844
50.98	3.977
51.2	7.015
51.42	23.007
51.64	3.854
51.86	0.01
52.08	0.539
52.3	60.749
52.52	21.848
52.74	20.968
52.96	7.39
53.18	2.091
53.4	2.013
53.62	2.074
53.84	5.161
54.06	4.272
54.28	4.308
54.5	11.11
54.72	18.2
54.94	6.641
55.16	0.729
55.38	1.49
55.6	1.474
55.82	2.629
56.04	1.76
56.26	11.706
56.48	18.576
56.7	21.665
56.92	4.729
57.14	2.467
57.36	8.055
57.58	4.963
57.8	5.968
58.02	7.108
58.24	15.143
58.46	6.057
58.68	6.092
58.9	5.305
59.12	6.397
59.34	0.308
59.56	1.389
59.78	4.48
60	0.687
60.22	6.013
60.44	18.111
60.66	43.055
60.88	8.053
61.1	0.022
61.32	4.783
61.54	0.453
61.76	4.421
61.98	9.377
62.2	38.151
62.42	34.716
62.64	22.385
62.86	1.957
63.08	3.711
63.3	6.667
63.52	4.741
63.74	0.909
63.96	19.062
64.18	8.548
64.4	9.599
64.62	6.075
64.84	3.164
65.06	5.3
65.28	0.586
65.5	0.461
65.72	1.462
65.94	9.35
66.16	29.259
66.38	14.298
66.6	11.902
66.82	6.944
67.04	6.674
67.26	4.059
67.48	2.206
67.7	3.423
67.92	4.729
68.14	1.81
68.36	3.089
68.58	3.931
68.8	5.881
69.02	0.734
69.24	7.72
69.46	18.831
69.68	29.753
69.9	6.82
70.12	1.687
70.34	6.505
70.56	0.576
70.78	2.348
71	4.758
71.22	5.972
71.44	4.271
71.66	17.446
71.88	13.579
72.1	2.29
72.32	5.358
72.54	0.51
72.76	2.513
72.98	7.474
73.2	5.495
73.42	3.41
73.64	2.241
73.86	6.134
74.08	6.968
74.3	0.781
74.52	2.77
74.74	0.278
74.96	1.988
75.18	2.988
75.4	6.977
75.62	9.089
75.84	6.13
76.06	4.212
76.28	3.967
76.5	4.907
76.72	0.221
76.94	7.553
77.16	18.395
77.38	11.979
77.6	4.855
77.82	2.768
78.04	7.597
78.26	2.295
78.48	9.756
78.7	6.917
78.92	4.153
79.14	11.484
79.36	1.591
79.58	1.569
79.8	2.604
80.02	3.724
80.24	1.338
80.46	0.632
80.68	10.366
80.9	3.161
81.12	5.015
81.34	1.948
81.56	20.298
81.78	19.219
82	7.203
82.22	6.219
82.44	1.241
82.66	5.294
82.88	4.235
83.1	3.378
83.32	2.378
83.54	4.397
83.76	1.969
83.98	10.622
84.2	0.773
84.42	15.206
84.64	1.454
84.86	9.479
85.08	4.701
85.3	7.837
85.52	1.241
85.74	0.754
85.96	1.712
86.18	1.722
86.4	0.625
86.62	1.508
86.84	4.023
87.06	9.803
87.28	1.733
87.5	1.542
87.72	0.378
87.94	9.932
88.16	6.213
88.38	12.505
88.6	11.651
88.82	1.806
89.04	7.136
89.26	2.528
89.48	9.942
89.7	9.13
89.92	6.338
