Measurement: Powder, Xray Data XY Processed
Mineral: Catapleiite
Rruff sample: R040005
Ideal chemistry: Na_2_Zr^4+^Si_3_O_9_2H_2_O
Locality: Langesundsfjord Eikaholmen Vestfold, Norway
Source: University of Arizona Mineral Museum
Description: Brown thin tabular crystal
Diffraction sample description: Powder
Measured chemistry: (Na_1.28_Ca_0.36_[box]_0.36_)_Σ=2_Zr_1.00_Si_3.00_O_9_·2H_2_O
Cell parameters: a: 7.375(1) b: 12.8048(9) c: 10.0240(6) alpha: 90 beta: 90 gamma: 90 volume: 946.6(0) crystal system: orthorhombic
x	intensity
5	0
5.22	1.045
5.44	11.385
5.66	3.252
5.88	8.405
6.1	15.701
6.32	16.618
6.54	10.149
6.76	4.409
6.98	11.863
7.2	1.581
7.42	0.012
7.64	1.614
7.86	3.959
8.08	9.183
8.3	4.379
8.52	7.345
8.74	7.313
8.96	6.17
9.18	12.003
9.4	6.116
9.62	8.031
9.84	8.08
10.06	7.924
10.28	6.891
10.5	2.905
10.72	11.163
10.94	4.34
11.16	9.525
11.38	4.442
11.6	2.353
11.82	12.128
12.04	13.087
12.26	7.81
12.48	11.539
12.7	6.311
12.92	2.89
13.14	6.729
13.36	11.421
13.58	7.332
13.8	175.219
14.02	33.066
14.24	5.122
14.46	8.361
14.68	7.47
14.9	12.818
15.12	4.884
15.34	0.985
15.56	2.956
15.78	4.946
16	8.601
16.22	10.823
16.44	400.144
16.66	16.887
16.88	6.545
17.1	4.866
17.32	5.118
17.55	2.208
17.77	9.263
17.99	14.726
18.21	0.927
18.43	6.979
18.65	4.834
18.87	11.639
19.09	1.709
19.31	3.547
19.53	0.409
19.75	10.134
19.97	2.413
20.19	7.092
20.41	13.723
20.63	7.99
20.85	7.039
21.07	1.084
21.29	8.942
21.51	1.754
21.73	3.569
21.95	0.688
22.17	4.038
22.39	30.493
22.61	692.221
22.83	12.957
23.05	2.619
23.27	7.243
23.49	0.304
23.71	6.47
23.93	9.589
24.15	121.741
24.37	1.719
24.59	3.122
24.81	6.102
25.03	7.018
25.25	15.937
25.47	7.085
25.69	0.703
25.91	3.152
26.13	7.949
26.35	3.125
26.57	5.964
26.79	10.782
27.01	10.336
27.23	12.336
27.45	1.681
27.67	4.004
27.89	79.351
28.11	8.6
28.33	11.999
28.55	7.252
28.77	1.592
28.99	4.806
29.21	64.485
29.43	172.137
29.65	0.685
29.87	15.918
30.09	398.932
30.31	85.235
30.53	13.179
30.75	6.148
30.97	8.003
31.19	1.232
31.41	10.502
31.63	0.322
31.85	7.703
32.07	3.025
32.29	8.021
32.51	10.878
32.73	11.036
32.95	13.007
33.17	292.111
33.39	62.221
33.61	17.316
33.83	4.363
34.05	0.814
34.27	5.318
34.49	6.51
34.71	0.412
34.93	7.717
35.15	8.277
35.37	4.211
35.59	4.031
35.81	33.905
36.03	11.846
36.25	4.205
36.47	15.217
36.69	3.302
36.91	9.321
37.13	51.319
37.35	14.304
37.57	3.858
37.79	2.015
38.01	8.781
38.23	3.837
38.45	2.977
38.67	8.259
38.89	11.235
39.11	6.28
39.33	9.496
39.55	3.863
39.77	4.142
39.99	11.227
40.21	2.359
40.43	4.549
40.65	1.712
40.87	7.851
41.09	9.104
41.31	6.87
41.53	43.162
41.75	13.345
41.97	10.303
42.19	9.989
42.41	8.837
42.63	11.682
42.85	4.467
43.07	4.172
43.29	7.89
43.51	13.557
43.73	22.447
43.95	8.954
44.17	1.526
44.39	6.049
44.61	5.798
44.83	4.528
45.05	6.261
45.27	10.033
45.49	4.974
45.71	10.681
45.93	128.227
46.15	148.023
46.37	74.06
46.59	10.076
46.81	4.757
47.03	2.008
47.25	4.334
47.47	18.069
47.69	6.481
47.91	2.619
48.13	7.356
48.35	4.124
48.57	13.078
48.79	2.063
49.01	4.908
49.23	53.173
49.45	93.708
49.67	3.103
49.89	7.833
50.11	14.649
50.33	5.397
50.55	1.436
50.77	24.249
50.99	12.712
51.21	0.42
51.43	31.531
51.65	8.699
51.87	2.057
52.09	3.696
52.31	16.677
52.53	151.066
52.75	85.142
52.97	14.293
53.19	8.232
53.41	2.394
53.63	1.715
53.85	11.904
54.07	4.102
54.29	10.59
54.51	1.765
54.73	17.823
54.95	29.651
55.17	13.973
55.39	3.176
55.61	0.189
55.83	4.886
56.05	0.85
56.27	5.792
56.49	2.707
56.71	5.67
56.93	41.845
57.15	23.528
57.37	4.161
57.59	14.436
57.81	3.272
58.03	6.317
58.25	4.736
58.47	6.168
58.69	5.258
58.91	13.334
59.13	5.142
59.35	8.109
59.57	3.244
59.79	4.327
60.01	10.133
60.23	3.182
60.45	6.862
60.67	43.072
60.89	41.823
61.11	5.827
61.33	6.679
61.55	5.371
61.77	3.774
61.99	1.345
62.21	10.901
62.43	38.576
62.65	61.383
62.87	30.399
63.09	19.452
63.31	9.239
63.53	1.228
63.75	16.553
63.97	10.021
64.19	20.323
64.41	18.111
64.63	4.858
64.85	0.578
65.07	4.782
65.29	2.152
65.51	3.506
65.73	2.783
65.95	4.835
66.17	38.825
66.39	43.65
66.61	16.997
66.83	11.14
67.05	5.757
67.27	5.575
67.49	5.816
67.71	10.931
67.93	1.248
68.15	11.386
68.37	2.431
68.59	4.545
68.81	5.611
69.03	4.068
69.25	0.996
69.47	10.389
69.69	29.575
69.91	36.485
70.13	36.199
70.35	6.379
70.57	3.184
70.79	0.711
71.01	3.31
71.23	2.346
71.45	8.419
71.67	18.536
71.89	16.364
72.11	19.814
72.33	15.854
72.55	3.954
72.77	4.883
72.99	5.023
73.21	1.943
73.43	6.172
73.65	7.345
73.87	17.687
74.09	8.927
74.31	9.848
74.53	9.645
74.75	0.724
74.97	4.767
75.19	4.805
75.41	2.988
75.63	8.901
75.85	9.176
76.07	18.856
76.29	3.287
76.51	2.763
76.73	7.349
76.95	3.891
77.17	9.505
77.39	12.129
77.61	15.753
77.83	14.286
78.05	3.163
78.27	4.663
78.49	13.96
78.71	8.296
78.93	8.079
79.15	8.459
79.37	6.69
79.59	6.324
79.81	1.577
80.03	3.773
80.25	3.853
80.47	8.856
80.69	5.759
80.91	6.547
81.13	16.305
81.35	8.733
81.57	11.441
81.79	23.653
82.01	33.967
82.23	6.95
82.45	5.952
82.67	0.989
82.89	1.058
83.11	4.205
83.33	2.33
83.55	8.299
83.77	7.228
83.99	4.258
84.21	4.99
84.43	8.512
84.65	12.637
84.87	24.151
85.09	4.551
85.31	10.681
85.53	3.961
85.75	5.256
85.97	8.384
86.19	4.629
86.41	1.696
86.63	2.653
86.85	5.405
87.07	7.24
87.29	3.695
87.51	9.382
87.73	9.258
87.95	11.96
88.17	3.946
88.39	9.881
88.61	4.928
88.83	6.071
89.05	2.302
89.27	1.746
89.49	4.229
89.71	4.985
89.93	0.748
