Measurement: Powder, Xray Data XY Processed
Mineral: Cechite
Rruff sample: R170047
Ideal chemistry: Pb^2+^Fe^2+^V^5+^O_4_(OH)
Locality: Maria Magdalena mine, Ulldemolins, Priorat, Tarragona, Catalonia, Spain
Source: Joan Rosell, Tariq Jawhari, Jordi Ibáñez and Xavier Llovet (CCiTUB Barcelona)
Description: Black tabular or pyramidal crystals
Diffraction sample description: Powder
Measured chemistry: Pb_1.00_(Fe_0.97_Zn_0.01_)(VO_4_)_1.00_(OH)_0.96_
Cell parameters: a: 7.6028(2) b: 9.4343(3) c: 6.0902(2) alpha: 90 beta: 90 gamma: 90 volume: 436.83(2) crystal system: orthorhombic
x	intensity
12.0142	0
12.1465	54.9697
12.2789	94.5666
12.4112	26.3345
12.5435	72.9696
12.6758	68.9194
12.8081	48.471
12.9405	26.6674
13.0728	70.1524
13.2051	23.7078
13.3375	0.534607
13.4698	61.9727
13.6021	60.6842
13.7344	14.8309
13.8667	49.3814
13.9991	77.8859
14.1314	54.2369
14.2637	28.6852
14.396	65.6289
14.5284	51.8842
14.6607	67.4111
14.793	72.1171
14.9253	57.1592
15.0577	40.9286
15.19	114.706
15.3223	37.9685
15.4546	36.272
15.587	44.1436
15.7193	53.4487
15.8516	5.52197
15.9839	41.3867
16.1163	4.04913
16.2486	18.5513
16.3809	45.816
16.5132	15.0286
16.6456	6.56158
16.7779	115.518
16.9102	50.8052
17.0425	80.1683
17.1749	233.499
17.3072	4144.54
17.4395	756.811
17.5718	155.205
17.7042	144.179
17.8365	75.3032
17.9688	223.57
18.1011	176.311
18.2335	105.813
18.3658	29.3052
18.4981	31.5872
18.6304	37.8817
18.7628	1068.49
18.8951	591.952
19.0274	106.477
19.1597	131.314
19.292	112.541
19.4244	32.931
19.5567	58.8168
19.689	53.7537
19.8213	38.0832
19.9537	34.4464
20.086	21.6785
20.2183	69.4288
20.3507	25.4927
20.483	63.4832
20.6153	46.0697
20.7476	105.325
20.88	1578.71
21.0123	896.741
21.1446	179.573
21.2769	86.7811
21.4092	130.615
21.5416	59.5851
21.6739	71.6793
21.8062	125.015
21.9385	57.9149
22.0709	322.423
22.2032	2186.1
22.3355	239.148
22.4678	27.909
22.6002	18.3311
22.7325	19.8441
22.8648	13.8469
22.9971	55.8489
23.1295	63.6516
23.2618	24.7077
23.3941	256.375
23.5264	65.2206
23.6588	41.0099
23.7911	18.9186
23.9234	11.542
24.0557	82.5626
24.1881	88.228
24.3204	14.6497
24.4527	26.6626
24.585	25.8298
24.7174	29.8479
24.8497	55.3115
24.982	62.7676
25.1143	267.818
25.2466	3174.63
25.379	421.633
25.5113	39.6296
25.6436	31.4316
25.776	27.4926
25.9083	4.89996
26.0406	61.4771
26.1729	137.655
26.3053	26.3817
26.4376	57.0633
26.5699	918.783
26.7022	881.229
26.8346	212.546
26.9669	65.0695
27.0992	102.364
27.2315	69.3818
27.3638	236.368
27.4962	1373.05
27.6285	8926.28
27.7608	3221.04
27.8931	563.567
28.0255	229.627
28.1578	94.8724
28.2901	861.715
28.4224	34.5699
28.5548	5.53577
28.6871	0.239746
28.8194	28.8767
28.9517	45.2952
29.0841	142.87
29.2164	598.678
29.3487	2345.22
29.481	553.301
29.6134	233.876
29.7457	281.438
29.878	333.054
30.0103	334.233
30.1427	747.608
30.275	538.853
30.4073	122.897
30.5396	257.321
30.672	1493.99
30.8043	5689.56
30.9366	792.655
31.0689	252.844
31.2013	148.587
31.3336	56.2192
31.4659	31.7438
31.5982	16.3142
31.7306	7.8324
31.8629	54.8009
31.9952	75.0942
32.1275	22.8726
32.2599	161.44
32.3922	455.495
32.5245	163.137
32.6568	32.9102
32.7891	114.496
32.9215	234.353
33.0538	4390.45
33.1861	1316.16
33.3184	400.342
33.4508	399.314
33.5831	1557.91
33.7154	3297.7
33.8477	693.609
33.9801	515.369
34.1124	2607.28
34.2447	4810.39
34.377	639.991
34.5094	238.774
34.6417	32.4452
34.774	23.5093
34.9063	135.981
35.0387	2240.31
35.171	960.548
35.3033	123.657
35.4356	88.6096
35.568	74.6403
35.7003	62.775
35.8326	74.4069
35.9649	73.3254
36.0973	29.9998
36.2296	22.6077
36.3619	9.34876
36.4942	35.2731
36.6266	280.432
36.7589	483.042
36.8912	126.757
37.0235	588.77
37.1559	569.876
37.2882	110.723
37.4205	64.4415
37.5528	25.3972
37.6852	60.5465
37.8175	558.061
37.9498	226.641
38.0821	69.2402
38.2145	11.7527
38.3468	41.7134
38.4791	24.3767
38.6114	40.8817
38.7437	77.3326
38.8761	406.901
39.0084	1758.98
39.1407	2824.97
39.273	733.556
39.4054	263.751
39.5377	292.192
39.67	480.443
39.8023	262.299
39.9347	826.668
40.067	1335.01
40.1993	343.576
40.3317	468.803
40.464	677.755
40.5963	151.18
40.7286	65.5537
40.861	30.8487
40.9933	39.0365
41.1256	0.707031
41.2579	4.45801
41.3902	40.743
41.5226	7.34277
41.6549	49.0911
41.7872	71.2411
41.9195	52.5457
42.0519	60.319
42.1842	98.8074
42.3165	173.997
42.4488	199.822
42.5812	406.022
42.7135	819.185
42.8458	1059.55
42.9781	1890.42
43.1105	2407.31
43.2428	1236.27
43.3751	388.294
43.5074	190.677
43.6398	143.553
43.7721	170.77
43.9044	65.5355
44.0367	39.8341
44.1691	44.7659
44.3014	0.761353
44.4337	83.49
44.566	30.6759
44.6984	5.11731
44.8307	9.94788
44.963	36.2089
45.0953	53.8057
45.2276	217.575
45.36	83.3287
45.4923	127.714
45.6246	291.284
45.757	397.736
45.8893	502.244
46.0216	479.093
46.1539	266.102
46.2863	54.4019
46.4186	38.9696
46.5509	38.7594
46.6832	62.4514
46.8156	27.7347
46.9479	11.079
47.0802	47.3643
47.2125	74.3151
47.3449	295.617
47.4772	186.253
47.6095	172.424
47.7418	580.172
47.8741	740.557
48.0065	261.192
48.1388	118.641
48.2711	146.202
48.4034	863.11
48.5358	1070.15
48.6681	625.597
48.8004	1016.25
48.9327	541.328
49.0651	125.953
49.1974	56.2533
49.3297	31.6263
49.462	56.064
49.5944	21.5902
49.7267	21.7719
49.859	33.6984
49.9913	77.8929
50.1237	25.1318
50.256	200.863
50.3883	663.637
50.5206	575.827
50.653	883.419
50.7853	601.386
50.9176	1032.68
51.0499	782.181
51.1823	783.765
51.3146	550.211
51.4469	291.002
51.5792	148.995
51.7116	307.943
51.8439	1423.39
51.9762	998.814
52.1085	1435.84
52.2409	717.743
52.3732	115.049
52.5055	26.2725
52.6378	35.7116
52.7702	49.1766
52.9025	44.0279
53.0348	224.074
53.1671	202.398
53.2995	45.4071
53.4318	92.9624
53.5641	57.5435
53.6964	1.85754
53.8287	30.1362
53.9611	48.0438
54.0934	29.891
54.2257	515.626
54.358	376.319
54.4904	90.844
54.6227	32.4998
54.755	597.957
54.8873	548.492
55.0197	433.017
55.152	1550.91
55.2843	1601.8
55.4166	3222.28
55.549	1778.56
55.6813	776.397
55.8136	282.812
55.9459	153.131
56.0783	91.9611
56.2106	54.2924
56.3429	6.29224
56.4752	23.8438
56.6076	52.3535
56.7399	37.4721
56.8722	100.609
57.0045	537.934
57.1369	673.898
57.2692	584.409
57.4015	123.207
57.5338	106.217
57.6662	4.07068
57.7985	58.4205
57.9308	79.1548
58.0631	2.16943
58.1955	1.42041
58.3278	61.8011
58.4601	116.367
58.5924	309.077
58.7248	986.296
58.8571	988.311
58.9894	694.035
59.1217	286.553
59.254	145.853
59.3864	112.161
59.5187	45.1659
59.651	85.9469
59.7833	68.6363
59.9157	13.0469
60.048	20.234
60.1803	24.8391
60.3126	27.0519
60.445	57.3428
60.5773	150.701
60.7096	373.474
60.8419	645.856
60.9743	636.169
61.1066	391.717
61.2389	709.031
61.3712	776.466
61.5036	338.128
61.6359	376.513
61.7682	412.318
61.9005	435.238
62.0329	142.094
62.1652	27.2164
62.2975	78.5867
62.4298	9.43201
62.5622	54.7502
62.6945	161.494
62.8268	353.599
62.9591	293.618
63.0915	117.985
63.2238	286.001
63.3561	202.207
63.4884	212.612
63.6208	20.551
63.7531	121.507
63.8854	137.065
64.0177	193.701
64.1501	109.898
64.2824	129.156
64.4147	106.966
64.547	41.9929
64.6794	9.33533
64.8117	5.48877
