Measurement: Powder, Xray Data XY Processed
Mineral: Cerussite
Rruff sample: R050011
Ideal chemistry: Pb^2+^CO_3_
Locality: Daoping Lead and Zinc mine, Gongcheng, Guangxi, China
Source: Eugene Schlepp
Description: Colorless hexagonal bipyramidal crystals
Diffraction sample description: Powder
Measured chemistry: Pb_1.00_CO_3_ ; CO_2_ not measured but estimated by difference and stoichiometry
Cell parameters: a: 5.1836(2) b: 8.4978(4) c: 6.1453(4) alpha: 90. beta: 90. gamma: 90. volume: 270.70(2) crystal system: orthorhombic
x	intensity
5	0
5.22	0.24
5.44	1.81
5.66	16.344
5.88	2.451
6.1	9.8
6.32	8.016
6.54	5.519
6.76	7.964
6.98	0.293
7.2	0.633
7.42	3.42
7.64	10.723
7.86	14.665
8.08	11.57
8.3	8.489
8.52	3.416
8.74	4.27
8.96	0.891
9.18	4.985
9.4	5.826
9.62	6.768
9.84	7.566
10.06	5.384
10.28	7.432
10.5	7.434
10.72	1.815
10.94	6.91
11.16	0.252
11.38	0.51
11.6	3.723
11.82	10.032
12.04	3.318
12.26	5.741
12.48	5.815
12.7	4.604
12.92	4.767
13.14	8.738
13.36	7.852
13.58	6.759
13.8	3.945
14.02	0.05
14.24	8.856
14.46	1.673
14.68	0.489
14.9	7.283
15.12	3.083
15.34	5.931
15.56	3.665
15.78	5.655
16	9.564
16.22	8.253
16.44	3.168
16.66	8.231
16.88	1.305
17.1	8.196
17.32	6.44
17.54	1.659
17.76	8.02
17.98	4.117
18.2	2.176
18.42	5.471
18.64	7.609
18.86	3.525
19.08	3.273
19.3	2.889
19.52	6.974
19.74	2.624
19.96	8.311
20.18	76.06
20.4	6.445
20.62	8.071
20.84	4.874
21.06	11.722
21.28	2.759
21.5	1.812
21.72	9.091
21.94	8.115
22.16	2.76
22.38	17.657
22.6	5.817
22.82	6.705
23.04	18.383
23.26	1.785
23.48	0.217
23.7	1.575
23.92	4.103
24.14	12.939
24.36	5.196
24.58	27.147
24.8	496.461
25.02	96.146
25.24	32.66
25.46	105.074
25.68	35.675
25.9	0.238
26.12	1.889
26.34	8.482
26.56	5.214
26.78	13.87
27	1.429
27.22	6.95
27.44	7.46
27.66	11.357
27.88	11.209
28.1	4.04
28.32	9.065
28.54	2.937
28.76	3.897
28.98	21.854
29.2	91.029
29.42	6.222
29.64	9.235
29.86	4.997
30.08	4.078
30.3	0.215
30.52	1.735
30.74	2.469
30.96	22.656
31.18	2.771
31.4	5.805
31.62	0.674
31.84	5.693
32.06	13.874
32.28	1.409
32.5	7.856
32.72	2.741
32.94	5.582
33.16	0.161
33.38	0.936
33.6	6.393
33.82	6.714
34.04	2.053
34.26	1.414
34.48	16.35
34.7	60.1
34.92	24.005
35.14	0.48
35.36	7.239
35.58	102.891
35.8	21.231
36.02	43.054
36.24	159.982
36.46	12.459
36.68	7.165
36.9	6.177
37.12	1.067
37.34	1.78
37.56	5.437
37.78	2.319
38	1.216
38.22	4.034
38.44	10.142
38.66	2.113
38.88	6.263
39.1	7.119
39.32	12.711
39.54	1.382
39.76	4.492
39.98	0.4
40.2	2.99
40.42	6.135
40.64	18.204
40.86	35.837
41.08	9.84
41.3	8.584
41.52	5.379
41.74	5.283
41.96	7.099
42.18	2.222
42.4	10.335
42.62	19.968
42.84	13.23
43.06	4.648
43.28	23.757
43.5	469.358
43.72	38.305
43.94	11.844
44.16	11.268
44.38	9.714
44.6	2.242
44.82	2.261
45.04	9.23
45.26	40.276
45.48	4.731
45.7	30.849
45.92	90.109
46.14	15.764
46.36	2.905
46.58	11.497
46.8	24.226
47.02	218.006
47.24	58.314
47.46	12.839
47.68	5.863
47.9	1.322
48.12	1.757
48.34	7.086
48.56	4.263
48.78	18.684
49	85.465
49.22	52.516
49.44	69.285
49.66	14.928
49.88	7.086
50.1	6.248
50.32	0.061
50.54	3.276
50.76	13.65
50.98	14.929
51.2	3.961
51.42	4.214
51.64	8.094
51.86	1.246
52.08	0.746
52.3	11.163
52.52	16.618
52.74	5.51
52.96	0.605
53.18	5.633
53.4	6.038
53.62	10.184
53.84	1.525
54.06	10.419
54.28	11.792
54.5	6.859
54.72	7.646
54.94	4.939
55.16	2.662
55.38	6.305
55.6	7.949
55.82	1.263
56.04	7.764
56.26	22.906
56.48	53.52
56.7	12.849
56.92	5.279
57.14	13.852
57.36	13.732
57.58	8.821
57.8	4.645
58.02	12.534
58.24	25.539
58.46	10.79
58.68	4.145
58.9	1.654
59.12	20.515
59.34	36.138
59.56	2.203
59.78	11.231
60	3.292
60.22	11.025
60.44	7.256
60.66	4.386
60.88	3.245
61.1	6.498
61.32	11.068
61.54	11.862
61.76	45.315
61.98	22.711
62.2	5.258
62.42	0.992
62.64	18.032
62.86	18.165
63.08	68.024
63.3	19.95
63.52	4.42
63.74	2.421
63.96	7.796
64.18	12.81
64.4	24.888
64.62	9.083
64.84	4.764
65.06	11.828
65.28	15.213
65.5	4.681
65.72	8.3
65.94	33.999
66.16	15.815
66.38	0.986
66.6	0.44
66.82	3.943
67.04	9.261
67.26	12.56
67.48	4.786
67.7	0.572
67.92	1.463
68.14	9.583
68.36	6.404
68.58	3.142
68.8	2.155
69.02	2.004
69.24	5.85
69.46	4.466
69.68	0.026
69.9	3.424
70.12	2.803
70.34	2.193
70.56	0.26
70.78	17.148
71	24.534
71.22	17.591
71.44	3.951
71.66	6.217
71.88	9.01
72.1	10.991
72.32	44.709
72.54	24.499
72.76	4.387
72.98	8.275
73.2	10.844
73.42	8.298
73.64	36.51
73.86	31.82
74.08	12.197
74.3	12.363
74.52	3.067
74.74	1.913
74.96	9.534
75.18	25.137
75.4	4.641
75.62	5.693
75.84	8.86
76.06	1.254
76.28	4.824
76.5	8.205
76.72	14.433
76.94	20.198
77.16	12.065
77.38	1.239
77.6	1.336
77.82	2.413
78.04	8.44
78.26	4.923
78.48	4.387
78.7	14.004
78.92	10.818
79.14	4.573
79.36	2.272
79.58	0.209
79.8	2.308
80.02	0.01
80.24	3.711
80.46	10.491
80.68	14.602
80.9	15.35
81.12	20.821
81.34	13.067
81.56	21.412
81.78	2.63
82	3.984
82.22	0.838
82.44	2.292
82.66	0.512
82.88	9.585
83.1	2.348
83.32	11.183
83.54	0.235
83.76	7.21
83.98	29.205
84.2	40.393
84.42	5.285
84.64	9.628
84.86	0.915
85.08	6.955
85.3	15.026
85.52	4.098
85.74	8.156
85.96	6.98
86.18	4.921
86.4	3.809
86.62	2.736
86.84	4.732
87.06	5.57
87.28	6.688
87.5	14.721
87.72	11.836
87.94	4.995
88.16	1.178
88.38	10.564
88.6	4.667
88.82	7.612
89.04	5.014
89.26	4.971
89.48	3.41
89.7	0.047
89.92	8.12
