Measurement: Powder, Xray Data XY Processed
Mineral: Cerussite
Rruff sample: R050023
Ideal chemistry: Pb^2+^CO_3_
Locality: Mammoth - St Anthony mine, Tiger, Pinal County, Arizona, USA
Source: Eugene Schlepp
Description: Prismatic white single crystals
Diffraction sample description: Powder
Measured chemistry: Pb_1.00_CO_3_ ; CO_2_ not measured but estimated by difference and stoichiometry
Cell parameters: a: 5.1819(2) b: 8.4969(3) c: 6.1439(2) alpha: 90. beta: 90. gamma: 90. volume: 270.51(1) crystal system: orthorhombic
x	intensity
5	0
5.22	5.816
5.44	4.012
5.66	3.894
5.88	9.048
6.1	2.275
6.32	2.59
6.54	11.732
6.76	9.007
6.98	3.199
7.2	0.405
7.42	2.599
7.64	5.515
7.86	18.389
8.08	5.319
8.3	6.311
8.52	7.305
8.74	2.256
8.96	10.273
9.18	5.44
9.4	5.503
9.62	0.469
9.84	7.628
10.06	2.756
10.28	15.917
10.5	3.983
10.72	4.116
10.94	6.297
11.16	0.454
11.38	10.907
11.6	5.923
11.82	2.071
12.04	3.247
12.26	2.213
12.48	1.129
12.7	3.179
12.92	2.381
13.14	2.304
13.36	6.28
13.58	6.146
13.8	10.019
14.02	3.052
14.24	2.929
14.46	6.8
14.68	2.668
14.9	7.702
15.12	5.249
15.34	3.184
15.56	2.159
15.78	8.139
16	5.145
16.22	5.056
16.44	3.406
16.66	5.632
16.88	7.008
17.1	6.166
17.32	9.274
17.54	2.288
17.76	1.312
17.98	9.363
18.2	8.624
18.42	3.454
18.64	6.347
18.86	5.785
19.08	0.68
19.3	2.766
19.52	0.313
19.74	0.095
19.96	7.613
20.18	61.408
20.4	10.237
20.62	7.051
20.84	5.364
21.06	14.265
21.28	4.375
21.5	1.531
21.72	4.704
21.94	2.835
22.16	4.923
22.38	16.017
22.6	4.056
22.82	11.148
23.04	15.741
23.26	0.004
23.48	6.429
23.7	1.726
23.92	0.976
24.14	6.201
24.36	10.502
24.58	25.63
24.8	334.325
25.02	107.297
25.24	38.945
25.46	99.944
25.68	66.781
25.9	4.587
26.12	10.612
26.34	2.251
26.56	0.259
26.78	6.005
27	2.775
27.22	0.753
27.44	5.06
27.66	2.098
27.88	5.042
28.1	7.639
28.32	2.191
28.54	1.673
28.76	5.611
28.98	27.754
29.2	100.644
29.42	13.493
29.64	1.531
29.86	9.67
30.08	3.894
30.3	1.094
30.52	2.539
30.74	4.839
30.96	26.071
31.18	5.156
31.4	3.997
31.62	4.228
31.84	10.729
32.06	7.158
32.28	4.324
32.5	9.583
32.72	9.761
32.94	0.166
33.16	6.736
33.38	3.403
33.6	8.648
33.82	1.86
34.04	8.918
34.26	1.577
34.48	6.503
34.7	64.337
34.92	2.676
35.14	1.899
35.36	13.695
35.58	72.722
35.8	31.401
36.02	50.345
36.24	115.048
36.46	14.908
36.68	16.069
36.9	3.016
37.12	8.038
37.34	6.838
37.56	4.473
37.78	0.92
38	5.522
38.22	8.022
38.44	3.937
38.66	5.99
38.88	6.94
39.1	5.787
39.32	5.618
39.54	2.389
39.76	7.185
39.98	0.944
40.2	3.925
40.42	2.804
40.64	8.771
40.86	29.904
41.08	5.842
41.3	4.661
41.52	8.315
41.74	6.039
41.96	9.872
42.18	2.577
42.4	6.327
42.62	22.9
42.84	10.63
43.06	8.053
43.28	16.046
43.5	199.422
43.72	31.198
43.94	15.843
44.16	4.392
44.38	5.921
44.6	4.464
44.82	4.09
45.04	8.493
45.26	49.162
45.48	15.665
45.7	11.489
45.92	32.821
46.14	9.452
46.36	6.656
46.58	2.913
46.8	7.836
47.02	109.019
47.24	51.825
47.46	9.233
47.68	0.497
47.9	9.938
48.12	1.276
48.34	1.408
48.56	6.445
48.78	10.442
49	98.478
49.22	48.05
49.44	70.013
49.66	9.09
49.88	0.824
50.1	4.372
50.32	6.816
50.54	0.48
50.76	7.33
50.98	28.797
51.2	15.296
51.42	5.604
51.64	3.938
51.86	6.474
52.08	9.907
52.3	13.208
52.52	17.526
52.74	11.41
52.96	5.629
53.18	9.314
53.4	3.27
53.62	7.549
53.84	1.471
54.06	10.816
54.28	5.598
54.5	8.408
54.72	0.869
54.94	1.78
55.16	1.183
55.38	3.787
55.6	5.415
55.82	6.191
56.04	20.507
56.26	8.428
56.48	18.268
56.7	12.925
56.92	14.559
57.14	7.292
57.36	6.26
57.58	4.287
57.8	8.326
58.02	12.224
58.24	23.017
58.46	3.37
58.68	5.63
58.9	9.74
59.12	29.926
59.34	20.302
59.56	6.664
59.78	9.4
60	8.372
60.22	3.639
60.44	8.831
60.66	6.965
60.88	6.682
61.1	9.032
61.32	10.04
61.54	16.903
61.76	48.516
61.98	15.058
62.2	10.335
62.42	2.477
62.64	37.293
62.86	31.148
63.08	28.045
63.3	7.008
63.52	2.516
63.74	5.235
63.96	7.548
64.18	24.648
64.4	16.82
64.62	9.925
64.84	0.186
65.06	3.032
65.28	22.275
65.5	9.89
65.72	6.301
65.94	16.647
66.16	2.113
66.38	0.175
66.6	0.66
66.82	2.707
67.04	4.089
67.26	8.443
67.48	6.925
67.7	7.403
67.92	10.271
68.14	4.135
68.36	7.075
68.58	4.367
68.8	5.183
69.02	6.959
69.24	4.656
69.46	6.454
69.68	1.899
69.9	13.083
70.12	2.22
70.34	0.503
70.56	0.076
70.78	27.409
71	15.608
71.22	3.642
71.44	6.87
71.66	4.108
71.88	4.478
72.1	0.999
72.32	46.436
72.54	36.181
72.76	3.895
72.98	11.519
73.2	9.502
73.42	6.943
73.64	23.152
73.86	17.441
74.08	15.822
74.3	2.347
74.52	0.899
74.74	10.449
74.96	11.274
75.18	3.876
75.4	14.534
75.62	12.034
75.84	5.146
76.06	1.608
76.28	21.467
76.5	15.247
76.72	21.449
76.94	8.563
77.16	5.92
77.38	4.847
77.6	10.802
77.82	1.672
78.04	1.459
78.26	9.526
78.48	7.7
78.7	5.4
78.92	10.17
79.14	10.999
79.36	5.59
79.58	0.344
79.8	2.959
80.02	3.734
80.24	12.476
80.46	1.278
80.68	18.976
80.9	18.562
81.12	18.12
81.34	18.727
81.56	24.02
81.78	12.077
82	5.319
82.22	2.547
82.44	0.399
82.66	4.696
82.88	2.753
83.1	16.801
83.32	7.822
83.54	1.67
83.76	7.299
83.98	17.395
84.2	12.4
84.42	13.752
84.64	10.183
84.86	2.378
85.08	3.781
85.3	7.001
85.52	8.114
85.74	0.191
85.96	11.228
86.18	10.013
86.4	10.857
86.62	1.58
86.84	16.562
87.06	11.621
87.28	8.409
87.5	8.465
87.72	5.474
87.94	4.597
88.16	5.844
88.38	2.114
88.6	5.137
88.82	5.573
89.04	6.77
89.26	1.912
89.48	9.549
89.7	4.311
89.92	7.334
