Measurement: Powder, Xray Data XY Processed
Mineral: Cerussite
Rruff sample: R060017
Ideal chemistry: Pb^2+^CO_3_
Locality: Gonessa, Sardinia, Italy
Source: American Museum of Natural History
Description: White reticulated composite
Diffraction sample description: Powder
Measured chemistry: Pb_1.00_CO_3_ C not measured but estimated by difference and stoichiometry
Cell parameters: a: 5.1841(2) b: 8.4988(5) c: 6.1453(4) alpha: 90 beta: 90 gamma: 90 volume: 270.75(2) crystal system: orthorhombic
x	intensity
5	0
5.22	10.932
5.44	18.213
5.66	7.965
5.88	1.193
6.1	6.729
6.32	3.243
6.54	1.733
6.76	4.143
6.98	1.434
7.2	9.718
7.42	1.862
7.64	1.05
7.86	4.917
8.08	2.45
8.3	5.296
8.52	4.124
8.74	6.872
8.96	2.602
9.18	2.476
9.4	1.391
9.62	1.723
9.84	6.277
10.06	3.204
10.28	4.413
10.5	5.581
10.72	5.974
10.94	5.129
11.16	1.36
11.38	2.56
11.6	1.711
11.82	0.077
12.04	5.98
12.26	8.199
12.48	2.301
12.7	5.181
12.92	5.436
13.14	6.252
13.36	5.264
13.58	2.317
13.8	4.302
14.02	4.393
14.24	3.285
14.46	2.429
14.68	5.335
14.9	5.209
15.12	0.923
15.34	1.812
15.56	8.802
15.78	7.883
16	4.022
16.22	4.049
16.44	6.032
16.66	4.213
16.88	4.183
17.1	0.606
17.32	4.478
17.54	5.764
17.76	6.706
17.98	2.722
18.2	6.619
18.42	7.286
18.64	6.24
18.86	0.967
19.08	5.605
19.3	3.295
19.52	4.866
19.74	1.695
19.96	10.234
20.18	37.002
20.4	4.813
20.62	8.89
20.84	6.144
21.06	12.324
21.28	2.457
21.5	7.632
21.72	1.874
21.94	3.029
22.16	4.291
22.38	11.726
22.6	4.665
22.82	1.863
23.04	5.547
23.26	3.971
23.48	0.48
23.7	6.011
23.92	3.486
24.14	7.788
24.36	0.63
24.58	14.839
24.8	236.159
25.02	50.251
25.24	24.123
25.46	88.386
25.68	30.804
25.9	1.123
26.12	1.159
26.34	7.306
26.56	11.753
26.78	0.873
27	6.441
27.22	3.983
27.44	4.143
27.66	6.201
27.88	1.028
28.1	5.772
28.32	2.774
28.54	3.565
28.76	0.585
28.98	13.345
29.2	51.656
29.42	9.887
29.64	7.691
29.86	1.447
30.08	2.569
30.3	0.947
30.52	5.031
30.74	7.246
30.96	11.441
31.18	8.47
31.4	3.35
31.62	4.472
31.84	6.392
32.06	6.788
32.28	0.862
32.5	6.773
32.72	9.712
32.94	2.453
33.16	10.419
33.38	5.151
33.6	1.681
33.82	6.161
34.04	8.489
34.26	1.934
34.48	9.937
34.7	60.299
34.92	16.69
35.14	1.175
35.36	9.94
35.58	75.671
35.8	28.849
36.02	34.749
36.24	85.111
36.46	12.557
36.68	2.357
36.9	9.041
37.12	5.635
37.34	4.239
37.56	2.046
37.78	7.634
38	7.865
38.22	1.662
38.44	2.666
38.66	7.867
38.88	2.997
39.1	6.816
39.32	3.76
39.54	3.736
39.76	1.468
39.98	9.283
40.2	8.087
40.42	4.143
40.64	3.426
40.86	23.528
41.08	12.562
41.3	1.365
41.52	1.099
41.74	3.85
41.96	3.612
42.18	5.294
42.4	5.98
42.62	11.68
42.84	11.241
43.06	6.61
43.28	9.511
43.5	120.49
43.72	22.514
43.94	6.286
44.16	7.07
44.38	0.946
44.6	0.209
44.82	3.586
45.04	16.393
45.26	32.646
45.48	11.485
45.7	17.059
45.92	42.585
46.14	9.298
46.36	3.475
46.58	4.756
46.8	8.458
47.02	66.668
47.24	48.131
47.46	5.35
47.68	1.971
47.9	1.077
48.12	3.936
48.34	2.038
48.56	8.926
48.78	7.803
49	85.587
49.22	47.436
49.44	45.017
49.66	12.851
49.88	2.968
50.1	9.278
50.32	9.625
50.54	3.986
50.76	8.459
50.98	18.777
51.2	9.045
51.42	0.312
51.64	1.073
51.86	4.843
52.08	10.167
52.3	9.575
52.52	6.762
52.74	9.934
52.96	7.002
53.18	2.834
53.4	6.204
53.62	0.3
53.84	7.43
54.06	10.52
54.28	11.423
54.5	0.405
54.72	3.213
54.94	5.867
55.16	0.493
55.38	2.204
55.6	2.917
55.82	1.378
56.04	7.19
56.26	21.897
56.48	27.547
56.7	5.476
56.92	6.869
57.14	0.556
57.36	0.378
57.58	3.371
57.8	5.281
58.02	18.208
58.24	15.168
58.46	5.236
58.68	0.53
58.9	7.706
59.12	19.74
59.34	19.04
59.56	2.354
59.78	2.868
60	3.233
60.22	6.605
60.44	5.903
60.66	5.069
60.88	1.978
61.1	6.214
61.32	5.225
61.54	7.124
61.76	24.898
61.98	4.669
62.2	8.284
62.42	10.039
62.64	11.706
62.86	6.521
63.08	26.247
63.3	12.003
63.52	3.347
63.74	1.998
63.96	9.082
64.18	27.99
64.4	16.976
64.62	5.187
64.84	6.081
65.06	7.215
65.28	6.412
65.5	4.974
65.72	2.58
65.94	8.193
66.16	7.69
66.38	5.9
66.6	1.436
66.82	1.797
67.04	5.892
67.26	5.114
67.48	3.434
67.7	5.545
67.92	8.389
68.14	5.164
68.36	2.275
68.58	2.031
68.8	1.893
69.02	4.644
69.24	2.861
69.46	8.6
69.68	3.255
69.9	4.688
70.12	0.728
70.34	3.011
70.56	0.479
70.78	13.17
71	15.608
71.22	9.091
71.44	3.449
71.66	2.739
71.88	10.66
72.1	11.37
72.32	45.114
72.54	19.103
72.76	3.801
72.98	14.698
73.2	7.554
73.42	7.174
73.64	12.428
73.86	14.652
74.08	18.744
74.3	0.764
74.52	5.668
74.74	1.034
74.96	13.22
75.18	8.574
75.4	9.923
75.62	1.994
75.84	5.829
76.06	2.17
76.28	4.569
76.5	15.848
76.72	15.735
76.94	14.886
77.16	1.095
77.38	8.985
77.6	3.115
77.82	2.767
78.04	8.231
78.26	1.232
78.48	8.254
78.7	13.411
78.92	15.112
79.14	4.747
79.36	4.449
79.58	11.061
79.8	5.78
80.02	1.472
80.24	5.21
80.46	16.995
80.68	23.735
80.9	17.616
81.12	25.304
81.34	12.741
81.56	12.655
81.78	0.701
82	4.888
82.22	4.978
82.44	0.655
82.66	3.395
82.88	1.381
83.1	6.43
83.32	8.266
83.54	5.338
83.76	8.837
83.98	22.989
84.2	13.141
84.42	5.418
84.64	3.746
84.86	2.7
85.08	7.243
85.3	7.52
85.52	4.91
85.74	5.055
85.96	8.211
86.18	10.278
86.4	0.128
86.62	4.134
86.84	8.171
87.06	10.216
87.28	1.19
87.5	5.882
87.72	1.837
87.94	4.663
88.16	8.693
88.38	7.83
88.6	6.931
88.82	2.967
89.04	10.633
89.26	2.788
89.48	0.977
89.7	5.086
89.92	10.701
