Measurement: Powder, Xray Data XY Processed
Mineral: Cerussite
Rruff sample: R050298
Ideal chemistry: Pb^2+^CO_3_
Locality: Bunker Hill mine, Shoshone County, Idaho, USA
Source: Eugene Schlepp
Description: Group of colorless tabular crystals
Diffraction sample description: Powder
Measured chemistry: Pb_1.00_CO_3_
Cell parameters: a: 5.1817(3) b: 8.4961(5) c: 6.1446(5) alpha: 90 beta: 90 gamma: 90 volume: 270.51(2) crystal system: orthorhombic
x	intensity
5	0
5.22	3.02138
5.44	5.35619
5.66	4.52207
5.88	5.45815
6.1	3.13946
6.32	0.460869
6.54	5.07341
6.76	0.518954
6.98	2.85373
7.2	13.1001
7.42	10.385
7.64	11.3306
7.86	10.3499
8.08	8.32229
8.3	2.09182
8.52	3.86545
8.74	1.24074
8.96	6.55275
9.18	7.42411
9.4	4.32005
9.62	3.34797
9.84	13.1097
10.06	4.95013
10.28	7.09797
10.5	6.2419
10.72	9.39581
10.94	6.5041
11.16	0.511631
11.38	5.7071
11.6	0.948131
11.82	2.93029
12.04	4.00756
12.26	5.11061
12.48	4.2519
12.7	3.07785
12.92	3.93866
13.14	7.95252
13.36	5.89247
13.58	2.02408
13.8	6.13886
14.02	3.12286
14.24	5.12241
14.46	1.10708
14.68	2.97445
14.9	1.82634
15.12	4.79336
15.34	3.83847
15.56	12.8782
15.78	12.0472
16	12.972
16.22	7.85095
16.44	2.86281
16.66	4.94334
16.88	2.07767
17.1	7.34293
17.32	14.3776
17.54	3.4694
17.76	0.528767
17.98	4.47677
18.2	6.41537
18.42	2.35577
18.64	4.27376
18.86	3.12692
19.08	5.8967
19.3	11.7394
19.52	11.313
19.74	4.12011
19.96	2.84331
20.18	55.7117
20.4	3.53055
20.62	8.52123
20.84	17.5704
21.06	15.7114
21.28	7.83399
21.5	4.05211
21.72	1.04212
21.94	7.27105
22.16	5.39169
22.38	9.70462
22.6	5.83008
22.82	4.91688
23.04	1.6834
23.26	2.08264
23.48	5.4047
23.7	1.80269
23.92	0.055595
24.14	5.35914
24.36	6.70841
24.58	14.1328
24.8	349.359
25.02	84.604
25.24	32.8082
25.46	101.011
25.68	48.2439
25.9	2.62137
26.12	2.18415
26.34	5.80146
26.56	0.457425
26.78	14.3949
27	0.342504
27.22	5.8267
27.44	5.2661
27.66	4.15504
27.88	2.05316
28.1	6.15808
28.32	10.217
28.54	6.15029
28.76	8.40176
28.98	21.5348
29.2	47.9814
29.42	19.0363
29.64	9.09435
29.86	7.04504
30.08	5.09068
30.3	7.19508
30.52	7.26193
30.74	5.39975
30.96	18.3493
31.18	7.55033
31.4	4.50286
31.62	3.43611
31.84	2.38756
32.06	8.37266
32.28	1.9817
32.5	8.31906
32.72	8.21937
32.94	7.98917
33.16	4.75624
33.38	1.65815
33.6	1.75505
33.82	5.24076
34.04	3.66074
34.26	1.96113
34.48	7.30213
34.7	54.0862
34.92	4.13056
35.14	7.62465
35.36	0.593356
35.58	69.1918
35.8	19.4042
36.02	50.7351
36.24	133.607
36.46	13.3271
36.68	0.315565
36.9	6.99116
37.12	3.75164
37.34	1.49347
37.56	5.15525
37.78	6.66364
38	11.0043
38.22	10.1583
38.44	4.42618
38.66	0.384711
38.88	9.37463
39.1	6.02123
39.32	3.27284
39.54	0.855345
39.76	8.99246
39.98	3.82566
40.2	7.70808
40.42	9.63295
40.64	20.549
40.86	34.5774
41.08	15.2602
41.3	3.07407
41.52	6.83578
41.74	7.44695
41.96	3.23931
42.18	0.882239
42.4	2.53675
42.62	13.1976
42.84	2.75985
43.06	1.23377
43.28	19.9139
43.5	151.923
43.72	26.7955
43.94	4.46975
44.16	5.02186
44.38	14.6836
44.6	9.44677
44.82	4.16536
45.04	17.926
45.26	46.0363
45.48	11.1243
45.7	22.7326
45.92	48.0433
46.14	5.8172
46.36	7.12698
46.58	5.57087
46.8	19.9316
47.02	128.415
47.24	47.9752
47.46	10.2839
47.68	2.15583
47.9	9.10596
48.12	4.25441
48.34	1.3614
48.56	3.41491
48.78	17.3364
49	100.563
49.22	47.3319
49.44	39.4143
49.66	21.3733
49.88	6.45266
50.1	2.64707
50.32	0.052151
50.54	4.23456
50.76	7.69416
50.98	24.2431
51.2	7.088
51.42	4.24077
51.64	2.52228
51.86	3.6668
52.08	5.9597
52.3	7.26507
52.52	16.6904
52.74	0.844654
52.96	0.967265
53.18	4.93945
53.4	7.78137
53.62	0.14194
53.84	2.99272
54.06	6.16129
54.28	8.88573
54.5	0.053799
54.72	12.8126
54.94	5.39344
55.16	6.19652
55.38	4.98078
55.6	8.75922
55.82	2.59396
56.04	14.3042
56.26	16.1827
56.48	22.0883
56.7	13.787
56.92	5.39705
57.14	9.19057
57.36	6.0083
57.58	13.1979
57.8	7.0795
58.02	14.9968
58.24	26.852
58.46	8.91098
58.68	5.75057
58.9	4.92152
59.12	29.9478
59.34	36.1634
59.56	12.8574
59.78	3.14237
60	7.30674
60.22	13.456
60.44	10.5689
60.66	3.63356
60.88	4.56931
61.1	4.48346
61.32	0.306212
61.54	5.10751
61.76	22.8829
61.98	8.06718
62.2	4.72619
62.42	1.3897
62.64	22.6555
62.86	21.906
63.08	52.7656
63.3	12.6992
63.52	2.36641
63.74	6.23763
63.96	9.49962
64.18	22.4704
64.4	8.52191
64.62	11.7465
64.84	6.66568
65.06	1.36945
65.28	11.1547
65.5	7.62031
65.72	8.17163
65.94	6.49301
66.16	8.86895
66.38	0.373901
66.6	2.11508
66.82	7.59992
67.04	3.8415
67.26	5.27222
67.48	6.57576
67.7	1.14094
67.92	7.86525
68.14	0.973714
68.36	4.10657
68.58	2.12783
68.8	5.96692
69.02	1.74137
69.24	14.0051
69.46	0.693904
69.68	10.1911
69.9	9.6703
70.12	7.0302
70.34	1.31943
70.56	11.3989
70.78	27.7611
71	19.8351
71.22	16.9311
71.44	7.76301
71.66	5.70215
71.88	1.87515
72.1	8.85513
72.32	68.1654
72.54	42.0025
72.76	1.91052
72.98	4.96924
73.2	9.09838
73.42	4.16016
73.64	15.2283
73.86	17.6331
74.08	28.2087
74.3	1.13589
74.52	6.18061
74.74	3.48624
74.96	16.0455
75.18	13.7733
75.4	8.18767
75.62	11.0324
75.84	3.42365
76.06	0.798396
76.28	8.11768
76.5	4.33503
76.72	19.5272
76.94	10.0636
77.16	3.0704
77.38	3.32929
77.6	0.766585
77.82	5.3864
78.04	4.51778
78.26	2.42145
78.48	4.89346
78.7	15.1724
78.92	7.00385
79.14	12.4316
79.36	4.04053
79.58	0.464454
79.8	0.099847
80.02	6.72249
80.24	0.388197
80.46	18.0661
80.68	15.778
80.9	22.7584
81.12	18.3282
81.34	14.8046
81.56	14.8503
81.78	19.2139
82	5.30931
82.22	4.44335
82.44	0.59997
82.66	6.70613
82.88	12.7241
83.1	8.65608
83.32	12.1378
83.54	6.4333
83.76	4.95742
83.98	9.83253
84.2	12.7164
84.42	5.79271
84.64	2.09554
84.86	7.27869
85.08	0.468988
85.3	12.6723
85.52	8.86269
85.74	3.05477
85.96	1.03723
86.18	7.18859
86.4	7.57876
86.62	3.67705
86.84	3.75462
87.06	8.70515
87.28	4.72029
87.5	7.67867
87.72	5.68709
87.94	6.76046
88.16	4.85658
88.38	4.95329
88.6	8.94055
88.82	7.77
89.04	7.969
89.26	2.93786
89.48	6.28538
89.7	8.59663
89.92	4.3486
