Measurement: Powder, Xray Data XY Processed
Mineral: Cervantite
Rruff sample: R060667
Ideal chemistry: Sb^3+^Sb^5+^O_4_
Locality: Touliac, Cantal, France
Source: Michael Scott
Description: Tan colored massive, spongelike, associated with quartz and romeite
Diffraction sample description: Powder, with romeite and quartz
Cell parameters: a: 5.443(2) b: 4.821(1) c: 11.794(3) alpha: 90 beta: 90 gamma: 90 volume: 309.5(1) crystal system: orthorhombic
x	intensity
5	0
5.22	14.4121
5.44	16.1555
5.66	1.12556
5.88	5.10418
6.1	9.43322
6.32	10.8722
6.54	12.5424
6.76	13.821
6.98	2.17049
7.2	8.62004
7.42	3.93396
7.64	5.16941
7.86	3.37089
8.08	1.50246
8.3	8.36611
8.52	8.21927
8.74	3.70243
8.96	10.9574
9.18	8.31838
9.4	8.57727
9.62	3.86074
9.84	2.15165
10.06	4.22482
10.28	2.11219
10.5	4.32824
10.72	6.33256
10.94	2.42873
11.16	3.69895
11.38	2.84078
11.6	6.10176
11.82	6.10389
12.04	0.037748
12.26	5.05443
12.48	4.10414
12.7	2.07763
12.92	0.270646
13.14	4.47423
13.36	1.50353
13.58	3.20349
13.8	4.96522
14.02	2.2366
14.24	3.27203
14.46	2.78229
14.68	13.7339
14.9	40.7271
15.12	18.1713
15.34	6.98291
15.56	3.85933
15.78	1.93991
16	8.18797
16.22	6.35188
16.44	0.456353
16.66	2.75221
16.88	6.82851
17.1	7.96909
17.32	0.071816
17.54	3.94935
17.76	5.00826
17.98	7.96494
18.2	4.95703
18.42	0.801257
18.64	0.817389
18.86	8.68243
19.08	3.5609
19.3	1.39464
19.52	5.48667
19.74	4.4478
19.96	15.3032
20.18	3.26095
20.4	4.29726
20.62	1.50075
20.84	14.5461
21.06	3.85599
21.28	3.02066
21.5	7.08653
21.72	4.2304
21.94	3.26865
22.16	1.34397
22.38	3.24137
22.6	4.27807
22.82	5.18978
23.04	1.90777
23.26	3.73103
23.48	3.62217
23.7	1.33163
23.92	2.94791
24.14	2.90132
24.36	4.43993
24.58	2.87497
24.8	4.25824
25.02	6.58645
25.24	5.10287
25.46	6.29873
25.68	20.7829
25.9	21.7902
26.12	2.3508
26.34	4.56944
26.56	9.74475
26.78	5.35697
27	10.6092
27.22	14.786
27.44	10.8084
27.66	1.61376
27.88	0.578786
28.1	16.2629
28.32	1.22864
28.54	25.6455
28.76	44.5222
28.98	60.6678
29.2	48.2804
29.42	33.4108
29.64	5.48972
29.86	5.39749
30.08	25.6889
30.3	86.9298
30.52	29.4935
30.74	24.5255
30.96	10.3348
31.18	0.976095
31.4	8.95771
31.62	0.296865
31.84	1.43853
32.06	3.47446
32.28	1.80204
32.5	3.13477
32.72	4.0507
32.94	4.05145
33.16	6.96662
33.38	9.02375
33.6	4.06031
33.82	17.8196
34.04	12.9491
34.26	2.32101
34.48	1.34316
34.7	4.02217
34.92	12.2617
35.14	13.5877
35.36	2.23279
35.58	1.27556
35.8	3.52965
36.02	7.53093
36.24	0.604424
36.46	3.78077
36.68	2.73039
36.9	8.79032
37.12	4.68391
37.34	27.9829
37.56	2.13898
37.78	4.42402
38	1.64547
38.22	1.91038
38.44	0.905312
38.66	3.28792
38.88	2.34426
39.1	8.53541
39.32	2.38619
39.54	6.40513
39.76	3.27521
39.98	5.14881
40.2	9.03096
40.42	7.99796
40.64	1.98342
40.86	4.1053
41.08	4.28617
41.3	5.29975
41.52	6.20327
41.74	7.26631
41.96	2.35312
42.18	5.35036
42.4	2.49896
42.62	0.72184
42.84	8.71046
43.06	1.72204
43.28	8.69596
43.5	0.217788
43.72	0.182778
43.94	0.10116
44.16	4.99387
44.38	1.89976
44.6	1.21531
44.82	2.52363
45.04	8.15271
45.26	6.92732
45.48	1.86061
45.7	1.61284
45.92	12.405
46.14	13.868
46.36	1.91711
46.58	0.994067
46.8	4.95575
47.02	9.27356
47.24	6.63754
47.46	2.66086
47.68	0.636962
47.9	4.3919
48.12	0.894564
48.34	2.2071
48.56	5.17354
48.78	26.7042
49	14.3132
49.22	8.91386
49.44	7.0924
49.66	6.3902
49.88	4.00474
50.1	14.7024
50.32	40.4453
50.54	6.19101
50.76	5.07251
50.98	6.25809
51.2	17.7409
51.42	15.7511
51.64	4.787
51.86	5.83865
52.08	3.88615
52.3	0.891438
52.52	9.87649
52.74	5.86691
52.96	18.88
53.18	9.64626
53.4	3.27211
53.62	6.87029
53.84	11.326
54.06	11.0467
54.28	10.026
54.5	9.52132
54.72	12.0363
54.94	2.53437
55.16	5.1117
55.38	4.27009
55.6	6.56825
55.82	7.80839
56.04	12.1621
56.26	12.2085
56.48	5.09582
56.7	2.52802
56.92	5.57932
57.14	6.61286
57.36	1.97273
57.58	3.82499
57.8	2.6127
58.02	11.3814
58.24	4.1457
58.46	2.69988
58.68	2.22317
58.9	2.72394
59.12	6.47841
59.34	2.30406
59.56	10.8291
59.78	19.4627
60	21.5209
60.22	0.130869
60.44	7.56879
60.66	0.757597
60.88	1.87353
61.1	10.0961
61.32	3.23131
61.54	2.24494
61.76	0.051287
61.98	3.07473
62.2	10.2076
62.42	6.14791
62.64	3.58608
62.86	17.9638
63.08	7.99057
63.3	7.21486
63.52	5.37698
63.74	3.53129
63.96	4.74608
64.18	2.92645
64.4	4.12513
64.62	5.21665
64.84	11.4224
65.06	12.7104
65.28	11.6142
65.5	10.9832
65.72	3.11382
65.94	3.22979
66.16	0.632352
66.38	1.53643
66.6	9.6676
66.82	2.81467
67.04	8.85426
67.26	9.74412
67.48	0.699793
67.7	2.62095
67.92	7.47881
68.14	15.4605
68.36	4.75484
68.58	1.8526
68.8	4.8736
69.02	6.05011
69.24	1.99156
69.46	0.004414
69.68	3.99066
69.9	0.945284
70.12	5.82463
70.34	8.74045
70.56	11.5086
70.78	2.43155
71	6.29478
71.22	9.402
71.44	0.341193
71.66	3.7624
71.88	4.86061
72.1	1.95369
72.32	9.2018
72.54	4.28171
72.76	6.35416
72.98	3.37328
73.2	4.40761
73.42	0.546745
73.64	2.69228
73.86	6.51143
74.08	6.55039
74.3	4.53074
74.52	2.53585
74.74	2.40035
74.96	2.41482
75.18	2.72802
75.4	7.66042
75.62	14.4654
75.84	2.61132
76.06	7.30016
76.28	2.21548
76.5	2.15171
76.72	1.10121
76.94	1.79393
77.16	2.28737
77.38	2.27598
77.6	6.90302
77.82	8.96688
78.04	1.08876
78.26	4.65458
78.48	2.60828
78.7	11.5636
78.92	5.48405
79.14	3.50933
79.36	7.29762
79.58	7.50066
79.8	2.49068
80.02	4.31919
80.24	6.31665
80.46	1.28918
80.68	3.26298
80.9	3.15284
81.12	2.05675
81.34	5.31935
81.56	9.21612
81.78	3.04342
82	3.63899
82.22	5.41581
82.44	1.32368
82.66	4.2137
82.88	5.16023
83.1	8.12691
83.32	10.1028
83.54	6.09131
83.76	3.10909
83.98	2.18004
84.2	5.28178
84.42	10.3702
84.64	8.73486
84.86	3.84611
85.08	1.97252
85.3	1.05898
85.52	2.90287
85.74	0.896999
85.96	4.93719
86.18	1.48086
86.4	2.41005
86.62	3.38428
86.84	6.50884
87.06	2.24959
87.28	9.39428
87.5	6.59311
87.72	5.893
87.94	3.08303
88.16	2.34856
88.38	5.4558
88.6	4.63493
88.82	3.82496
89.04	0.034105
89.26	3.01633
89.48	5.76672
89.7	0.589069
89.92	5.78909
