Measurement: Powder, Xray Data XY Processed
Mineral: Chalcanthite
Rruff sample: R050293
Ideal chemistry: Cu^2+^S^6+^O_4_5H_2_O
Locality: 79 mine, 4th level, Hayden, Gila County, Arizona, USA
Source: George Godas, John Callahan
Description: Blue fibrous crust
Diffraction sample description: Powder
Measured chemistry: Cu_1.00_S_1.00_O_4_Â·5H_2_O
Cell parameters: a: 6.1146(3) b: 10.7121(4) c: 5.9591(2) alpha: 82.366(3) beta: 107.315(3) gamma: 102.613(2) volume: 362.68(2) crystal system: triclinic
x	intensity
5	0
5.22	22.6004
5.44	21.8962
5.66	17.4066
5.88	8.95332
6.1	22.6263
6.32	0.530403
6.54	10.5662
6.76	14.0919
6.98	19.4416
7.2	7.95572
7.42	17.3723
7.64	15.7619
7.86	4.0889
8.08	3.68103
8.3	17.3274
8.52	71.97
8.74	43.6486
8.96	21.7181
9.18	19.6305
9.4	1.25515
9.62	9.7124
9.84	15.5579
10.06	8.89386
10.28	8.99032
10.5	19.4973
10.72	4.04936
10.94	3.5874
11.16	24.1639
11.38	0.253925
11.6	27.3023
11.82	0.795097
12.04	30.3186
12.26	22.3649
12.48	4.9821
12.7	23.6579
12.92	25.1984
13.14	20.5816
13.36	21.8776
13.58	18.4979
13.8	13.1091
14.02	3.81898
14.24	6.20632
14.46	7.48081
14.68	11.1289
14.9	8.41193
15.12	10.5947
15.34	28.7598
15.56	57.7836
15.78	20.0537
16	5.15739
16.22	240.775
16.44	8.51601
16.66	11.0441
16.88	22.8946
17.1	19.6797
17.32	15.4586
17.54	4.57696
17.76	20.7389
17.98	2.9115
18.2	12.2293
18.42	20.9337
18.64	26.6839
18.86	267.002
19.08	100.432
19.3	8.97027
19.52	19.0408
19.74	13.3764
19.96	14.0943
20.18	14.2529
20.4	10.4724
20.62	21.1784
20.84	19.7584
21.06	3.12007
21.28	14.6236
21.5	0.350651
21.72	4.58788
21.94	14.5172
22.16	47.9265
22.38	143.994
22.6	21.5412
22.82	2.92409
23.04	8.92079
23.26	0.823532
23.48	9.40308
23.7	26.7709
23.92	51.216
24.14	29.8667
24.36	21.595
24.58	0.560211
24.8	19.3909
25.02	19.3016
25.24	63.2336
25.46	6.74555
25.68	20.1438
25.9	23.3952
26.12	3.46601
26.34	21.5167
26.56	9.45781
26.78	46.703
27	232.271
27.22	24.3141
27.44	69.1404
27.66	24.0007
27.88	6.26179
28.1	77.8238
28.32	13.3727
28.54	22.3775
28.76	8.66323
28.98	6.96533
29.2	61.7239
29.42	25.4592
29.64	12.1072
29.86	11.2569
30.08	16.9739
30.3	14.9794
30.52	0.570335
30.74	68.1268
30.96	3.6736
31.18	53.0854
31.4	1.32104
31.62	160.454
31.84	3.81675
32.06	60.0264
32.28	16.3557
32.5	120.935
32.72	51.3051
32.94	48.0692
33.16	13.7761
33.38	19.0906
33.6	51.9132
33.82	5.15062
34.04	12.4201
34.26	27.3524
34.48	12.0374
34.7	24.7347
34.92	12.7499
35.14	18.4558
35.36	16.5698
35.58	34.001
35.8	12.0955
36.02	1.34354
36.24	7.40982
36.46	0.641327
36.68	43.9268
36.9	44.085
37.12	56.0149
37.34	17.2143
37.56	1.53342
37.78	6.25399
38	21.1207
38.22	13.8376
38.44	10.4208
38.66	5.75394
38.88	0.9814
39.1	15.1355
39.32	8.92524
39.54	9.32888
39.76	3.28965
39.98	11.9244
40.2	9.77468
40.42	2.36961
40.64	10.198
40.86	17.3365
41.08	22.5279
41.3	18.6776
41.52	5.85238
41.74	6.2666
41.96	5.46681
42.18	35.6425
42.4	24.8067
42.62	6.42389
42.84	9.85371
43.06	14.8768
43.28	1.00485
43.5	22.0804
43.72	0.013691
43.94	0.10606
44.16	10.6409
44.38	5.49968
44.6	21.3812
44.82	37.9172
45.04	8.61558
45.26	9.96791
45.48	21.5333
45.7	21.5605
45.92	13.5143
46.14	1.34195
46.36	0.086918
46.58	8.98261
46.8	11.8693
47.02	17.7579
47.24	13.0669
47.46	28.5394
47.68	17.6911
47.9	12.8186
48.12	25.7447
48.34	29.763
48.56	4.05953
48.78	1.22377
49	12.3014
49.22	9.47872
49.44	6.52851
49.66	6.83372
49.88	19.7967
50.1	14.3837
50.32	10.8433
50.54	33.0661
50.76	12.3965
50.98	14.351
51.2	34.9845
51.42	23.4491
51.64	9.83143
51.86	1.21127
52.08	13.8855
52.3	14.7759
52.52	5.29668
52.74	10.7846
52.96	19.3943
53.18	11.058
53.4	0.873386
53.62	10.0297
53.84	6.52683
54.06	11.1827
54.28	15.0304
54.5	15.9995
54.72	2.22047
54.94	4.93611
55.16	32.5562
55.38	7.25943
55.6	6.64977
55.82	9.32292
56.04	5.24029
56.26	20.9043
56.48	19.8117
56.7	6.98376
56.92	42.8599
57.14	10.7745
57.36	9.58231
57.58	14.8371
57.8	26.3326
58.02	11.7949
58.24	20.1003
58.46	8.15685
58.68	8.11446
58.9	7.61533
59.12	6.27137
59.34	13.4073
59.56	10.1526
59.78	12.2974
60	16.4632
60.22	7.40097
60.44	18.0219
60.66	3.53051
60.88	7.50946
61.1	3.80935
61.32	10.7712
61.54	9.74021
61.76	20.7938
61.98	16.355
62.2	23.4176
62.42	9.79065
62.64	12.0632
62.86	13.5671
63.08	8.74609
63.3	7.93383
63.52	1.58783
63.74	7.2547
63.96	9.05796
64.18	12.3306
64.4	9.46894
64.62	10.6256
64.84	16.3146
65.06	18.5326
65.28	12.9393
65.5	11.279
65.72	10.0229
65.94	8.9496
66.16	8.50831
66.38	6.0067
66.6	13.32
66.82	13.4663
67.04	13.5645
67.26	5.69415
67.48	10.6645
67.7	13.9191
67.92	19.8041
68.14	22.3856
68.36	8.18306
68.58	5.92266
68.8	2.73701
69.02	14.8366
69.24	6.16341
69.46	7.30493
69.68	13.3607
69.9	15.5931
70.12	5.34032
70.34	12.6826
70.56	10.0894
70.78	14.8498
71	3.62336
71.22	8.61516
71.44	2.64211
71.66	22.4897
71.88	15.0002
72.1	10.314
72.32	12.7761
72.54	21.9726
72.76	3.81204
72.98	15.0664
73.2	13.3486
73.42	3.11094
73.64	1.63603
73.86	11.7399
74.08	21.1199
74.3	6.96796
74.52	4.94785
74.74	7.06781
74.96	11.1196
75.18	4.65475
75.4	11.8301
75.62	8.91823
75.84	2.12076
76.06	4.90796
76.28	13.8769
76.5	5.8827
76.72	17.6821
76.94	1.47627
77.16	11.6349
77.38	6.74904
77.6	1.41738
77.82	7.73109
78.04	10.8097
78.26	4.78656
78.48	3.80615
78.7	8.05161
78.92	16.015
79.14	9.4985
79.36	10.5884
79.58	3.88461
79.8	6.12971
80.02	4.55762
80.24	10.7638
80.46	6.94774
80.68	21.7905
80.9	11.4099
81.12	14.3611
81.34	13.7518
81.56	10.524
81.78	3.44634
82	12.5287
82.22	20.2183
82.44	11.6733
82.66	11.4866
82.88	11.9692
83.1	5.50054
83.32	1.40999
83.54	4.50512
83.76	23.5927
83.98	2.07042
84.2	14.427
84.42	7.29594
84.64	6.42857
84.86	5.68575
85.08	5.95147
85.3	6.35658
85.52	12.0698
85.74	9.18307
85.96	1.02633
86.18	12.9545
86.4	5.55411
86.62	12.212
86.84	13.1112
87.06	1.08489
87.28	6.00313
87.5	1.84973
87.72	1.15655
87.94	2.62811
88.16	16.6993
88.38	3.90698
88.6	11.1091
88.82	5.51352
89.04	2.00208
89.26	18.7137
89.48	4.79682
89.7	6.78038
89.92	11.0597
