Measurement: Powder, Xray Data XY Processed
Mineral: Chalcophanite
Rruff sample: R050451
Ideal chemistry: Zn^2+^Mn^4+^_3_O_7_3H_2_O
Locality: Morenci mine, Morenci, Greenlee County, Arizona, USA
Source: University of Arizona Mineral Museum
Description: A mass of small black hexagonal plates, not homogeneous
Diffraction sample description: Powder, cell parameters are from single crystal
Measured chemistry: (Zn_0.60_Fe^2+^_0.20_Cu_0.12_Fe^3+^_0.08_)_Σ=1_(Mn^4+^_2.92_Fe^3+^_0.08_)_Σ=3_O_7_·3H_2_O ; = bright phase. The gray phase is jacobsite (Mn_0.65_Zn_0.25_Cu_0.09_)_Σ=1_(Fe^3+^_1.58_Mn^3+^_0.42_)_Σ=2_O_4_; dark phase: K-feldspar
Cell parameters: a: 7.55(3) b: 7.55(3) c: 20.86(11) alpha: 90 beta: 90 gamma: 120 volume: 1029(1) crystal system: hexagonal
x	intensity
5	0
5.22	21.3469
5.44	13.0139
5.66	27.1946
5.88	8.96222
6.1	4.65273
6.32	11.0331
6.54	14.2751
6.76	11.9988
6.98	21.7601
7.2	11.2051
7.42	12.8396
7.64	3.14315
7.86	15.0833
8.08	8.20731
8.3	21.6634
8.52	17.9557
8.74	8.46374
8.96	26.1455
9.18	11.8978
9.4	23.9091
9.62	9.15218
9.84	11.0871
10.06	16.4026
10.28	12.5438
10.5	14.2076
10.72	5.77239
10.94	14.1844
11.16	15.0767
11.38	17.5089
11.6	7.26109
11.82	15.1045
12.04	22.0678
12.26	2.66317
12.48	13.9369
12.7	46.4435
12.92	19.9346
13.14	9.0582
13.36	16.1884
13.58	7.01318
13.8	18.2181
14.02	13.047
14.24	22.8019
14.46	13.7821
14.68	15.6319
14.9	6.70328
15.12	2.49499
15.34	17.9332
15.56	21.0994
15.78	22.7289
16	12.7666
16.22	2.53248
16.44	11.5268
16.66	9.9242
16.88	7.30498
17.1	20.8362
17.32	5.3132
17.54	7.73034
17.76	18.271
17.98	14.0915
18.2	2.90542
18.42	19.2319
18.64	8.86284
18.86	22.742
19.08	8.06604
19.3	8.69446
19.52	13.5353
19.74	11.5027
19.96	11.0595
20.18	11.6826
20.4	10.3241
20.62	10.5917
20.84	16.9915
21.06	22.6998
21.28	1.69127
21.5	16.1283
21.72	10.4557
21.94	29.5498
22.16	1.04557
22.38	5.71687
22.6	10.8832
22.82	5.0998
23.04	24.9773
23.26	14.175
23.48	16.131
23.7	16.2759
23.92	5.63049
24.14	3.52322
24.36	15.2247
24.58	7.56841
24.8	14.0261
25.02	12.2633
25.24	5.99492
25.46	7.1273
25.68	42.798
25.9	5.04062
26.12	1.58389
26.34	11.813
26.56	24.5092
26.78	19.3576
27	42.0553
27.22	10.463
27.44	0.722763
27.66	46.7545
27.88	19.8691
28.1	11.2715
28.32	13.5578
28.54	3.03726
28.76	19.193
28.98	13.7766
29.2	11.972
29.42	13.0183
29.64	2.85905
29.86	34.4821
30.08	0.981693
30.3	9.29063
30.52	20.5063
30.74	4.29207
30.96	14.1115
31.18	24.0047
31.4	27.1232
31.62	7.02023
31.84	5.55655
32.06	14.6642
32.28	11.2457
32.5	20.3698
32.72	4.47306
32.94	1.57623
33.16	21.4797
33.38	13.5824
33.6	4.51439
33.82	11.3822
34.04	5.24079
34.26	1.69426
34.48	8.6294
34.7	1.3719
34.92	19.033
35.14	33.6675
35.36	8.89799
35.58	13.5064
35.8	9.39217
36.02	18.0619
36.24	29.9896
36.46	7.96394
36.68	22.2828
36.9	21.4247
37.12	2.91794
37.34	18.3561
37.56	23.8775
37.78	17.2319
38	16.6621
38.22	3.19361
38.44	13.5326
38.66	24.1515
38.88	23.2471
39.1	6.84093
39.32	9.88274
39.54	2.24524
39.76	6.9035
39.98	20.6835
40.2	9.96607
40.42	32.2942
40.64	10.9522
40.86	3.75746
41.08	0.154202
41.3	13.7412
41.52	4.42089
41.74	15.8302
41.96	27.4032
42.18	0.01025
42.4	16.2793
42.62	19.6732
42.84	23.6194
43.06	19.1817
43.28	14.543
43.5	15.4904
43.72	16.6108
43.94	8.14556
44.16	9.94319
44.38	17.2999
44.6	26.5887
44.82	16.7325
45.04	28.7457
45.26	12.7881
45.48	22.1613
45.7	13.7916
45.92	7.03982
46.14	11.2252
46.36	26.3065
46.58	9.07813
46.8	10.4347
47.02	19.4694
47.24	9.89861
47.46	17.011
47.68	9.87652
47.9	10.8208
48.12	13.144
48.34	1.90827
48.56	9.83922
48.78	5.50711
49	11.4088
49.22	13.3647
49.44	20.0719
49.66	18.0982
49.88	1.56213
50.1	16.1323
50.32	11.0256
50.54	17.0697
50.76	23.3581
50.98	23.6673
51.2	11.2038
51.42	9.43862
51.64	1.32589
51.86	27.1539
52.08	9.76279
52.3	5.9468
52.52	4.21546
52.74	12.4742
52.96	25.1656
53.18	15.6499
53.4	20.6834
53.62	22.3696
53.84	23.5718
54.06	24.8495
54.28	12.0413
54.5	14.7079
54.72	5.11382
54.94	4.05154
55.16	4.92955
55.38	0.752068
55.6	24.1422
55.82	13.2853
56.04	9.76261
56.26	22.0506
56.48	13.5747
56.7	11.2801
56.92	22.2572
57.14	10.3492
57.36	17.7828
57.58	24.1155
57.8	14.6294
58.02	18.342
58.24	4.77285
58.46	8.16938
58.68	6.04598
58.9	14.2669
59.12	16.4676
59.34	20.972
59.56	25.5755
59.78	1.00998
60	0.401531
60.22	10.5293
60.44	10.2085
60.66	26.0418
60.88	19.8406
61.1	12.5615
61.32	27.737
61.54	17.771
61.76	24.7553
61.98	0.36124
62.2	9.84653
62.42	22.9866
62.64	6.8317
62.86	3.67722
63.08	18.5954
63.3	4.33252
63.52	10.021
63.74	11.2818
63.96	10.8882
64.18	1.14895
64.4	8.76222
64.62	18.2688
64.84	3.82854
65.06	14.6669
65.28	1.29666
65.5	11.1325
65.72	9.37228
65.94	8.4971
66.16	7.13195
66.38	18.1641
66.6	2.43698
66.82	6.54654
67.04	15.3331
67.26	24.9278
67.48	14.3275
67.7	6.80141
67.92	11.5989
68.14	15.9934
68.36	13.0233
68.58	13.9444
68.8	14.5777
69.02	19.4667
69.24	11.7466
69.46	7.50334
69.68	16.2742
69.9	23.8205
70.12	2.90977
70.34	5.54882
70.56	10.6342
70.78	20.4968
71	18.4171
71.22	6.11601
71.44	11.9679
71.66	25.4256
71.88	17.7191
72.1	8.5156
72.32	22.7869
72.54	8.5477
72.76	27.6755
72.98	7.36866
73.2	19.4657
73.42	24.622
73.64	10.4566
73.86	5.28985
74.08	6.70815
74.3	3.7946
74.52	15.754
74.74	18.6495
74.96	13.5423
75.18	10.254
75.4	1.26995
75.62	10.8233
75.84	34.0976
76.06	6.23739
76.28	13.3722
76.5	3.64407
76.72	0.897896
76.94	2.17449
77.16	20.1405
77.38	19.0712
77.6	21.7275
77.82	23.6236
78.04	6.64503
78.26	15.1164
78.48	12.7403
78.7	19.7065
78.92	9.47552
79.14	12.6266
79.36	0.94133
79.58	10.6609
79.8	31.0419
80.02	13.5198
80.24	11.8061
80.46	3.73277
80.68	4.82414
80.9	11.3987
81.12	28.3059
81.34	8.41135
81.56	5.57149
81.78	6.47697
82	13.4075
82.22	13.7365
82.44	14.4028
82.66	20.5593
82.88	29.6804
83.1	9.32931
83.32	6.523
83.54	19.501
83.76	19.3614
83.98	0.434803
84.2	10.6337
84.42	26.6388
84.64	16.5315
84.86	0.061058
85.08	5.45961
85.3	10.6351
85.52	9.7717
85.74	5.39341
85.96	8.3863
86.18	15.7158
86.4	9.10312
86.62	13.1976
86.84	18.2126
87.06	12.4567
87.28	8.62356
87.5	10.9018
87.72	11.7121
87.94	18.8667
88.16	16.7357
88.38	21.2603
88.6	0.407787
88.82	12.1501
89.04	2.35527
89.26	10.7362
89.48	31.2416
89.7	5.12356
89.92	9.40882
