Measurement: Powder, Xray Data XY Processed
Mineral: Chalcophanite
Rruff sample: R060271
Ideal chemistry: Zn^2+^Mn^4+^_3_O_7_3H_2_O
Locality: Glory Hole, Gold Hill mine, Tooele County, Utah, USA
Source: Michael Scott
Description: Black hexagonal plates
Diffraction sample description: Single crystal, powder profile is calculated
Measured chemistry: (Zn_0.97_Mn^2+^_0.03_)_Σ=1_Mn^4+^_3.00_O_7_·3(H_2_O)
Cell parameters: a: 7.5404(2) b: 7.5404(2) c: 20.809(1) alpha: 90 beta: 90 gamma: 120 volume: 1024.6(1) crystal system: hexagonal
x	intensity
5	0
5.22	0
5.44	0
5.66	0
5.88	0
6.1	0
6.32	0
6.54	0
6.76	0
6.98	0
7.2	0
7.42	0
7.64	0
7.86	0
8.08	0
8.3	0
8.52	0
8.74	0
8.96	0
9.18	0
9.4	0
9.62	0
9.84	0
10.06	0
10.28	0
10.5	0
10.72	0
10.94	0
11.16	0
11.38	0
11.6	0
11.82	0
12.04	0
12.26	0
12.48	0
12.7	13.273
12.92	0
13.14	0
13.36	0
13.58	0
13.8	0
14.02	0
14.24	8.545
14.46	0
14.68	0
14.9	0
15.12	0
15.34	0
15.56	0
15.78	0
16	1.458
16.22	0
16.44	0
16.66	0
16.88	0
17.1	0
17.32	0
17.54	0
17.76	0
17.98	0
18.2	0
18.42	0
18.64	0
18.86	0
19.08	0
19.3	0
19.52	0
19.74	0
19.96	0
20.18	0
20.4	0
20.62	0
20.84	0
21.06	0
21.28	0
21.5	0
21.72	0.033
21.94	1.249
22.16	0
22.38	0
22.6	0
22.82	0
23.04	0
23.26	0
23.48	0.003
23.7	0.037
23.92	0
24.14	0
24.36	0
24.58	0
24.8	0
25.02	0
25.24	0.006
25.46	2.803
25.68	12.046
25.9	0
26.12	0
26.34	0
26.56	0
26.78	0.004
27	1.136
27.22	0
27.44	0
27.66	1.634
27.88	0
28.1	0
28.32	0
28.54	0.013
28.76	0.093
28.98	0
29.2	0
29.42	0
29.64	0
29.86	0
30.08	0
30.3	0
30.52	0
30.74	0
30.96	0
31.18	0
31.4	0
31.62	0
31.84	0
32.06	0
32.28	1.061
32.5	0.288
32.72	0
32.94	0
33.16	0.558
33.38	0
33.6	0
33.82	0
34.04	0
34.26	0
34.48	0
34.7	0
34.92	3.315
35.14	11.725
35.36	0
35.58	0
35.8	0
36.02	0
36.24	0
36.46	0
36.68	5.578
36.9	0
37.12	0.007
37.34	0.663
37.56	2.004
37.78	0
38	0
38.22	0
38.44	0
38.66	0
38.88	0.223
39.1	0.012
39.32	0
39.54	0
39.76	0
39.98	0
40.2	0
40.42	26.453
40.64	0.015
40.86	0
41.08	0.17
41.3	0
41.52	0.205
41.74	0
41.96	0
42.18	0
42.4	0
42.62	1.427
42.84	0
43.06	0
43.28	0
43.5	0.166
43.72	0.028
43.94	0
44.16	0
44.38	0
44.6	0.131
44.82	0
45.04	0
45.26	0
45.48	0
45.7	0.253
45.92	0.035
46.14	0.466
46.36	0
46.58	0
46.8	0
47.02	0
47.24	0
47.46	0
47.68	0
47.9	4.899
48.12	0.004
48.34	0.318
48.56	0
48.78	0
49	0
49.22	0
49.44	1.604
49.66	0.001
49.88	0
50.1	0.691
50.32	0.173
50.54	0.857
50.76	0.027
50.98	8.794
51.2	0.126
51.42	0
51.64	0
51.86	0
52.08	0.231
52.3	0.006
52.52	0
52.74	1.368
52.96	0.081
53.18	0
53.4	0.002
53.62	0.465
53.84	0
54.06	0
54.28	0
54.5	0
54.72	0
54.94	0
55.16	0.013
55.38	1.034
55.6	0.625
55.82	0
56.04	0.002
56.26	0.057
56.48	0.096
56.7	0.021
56.92	0
57.14	0.001
57.36	0
57.58	0
57.8	0.044
58.02	2.129
58.24	0.048
58.46	0.004
58.68	0.028
58.9	0
59.12	0
59.34	0.304
59.56	0.054
59.78	0.184
60	0.005
60.22	0
60.44	0
60.66	0
60.88	0.554
61.1	0.326
61.32	0
61.54	0
61.76	3.761
61.98	0.302
62.2	0.084
62.42	0.132
62.64	0.111
62.86	0.003
63.08	0
63.3	0
63.52	0.001
63.74	0.013
63.96	0
64.18	0.255
64.4	0.211
64.62	0.169
64.84	0.583
65.06	0.035
65.28	0.069
65.5	3.411
65.72	0.233
65.94	0
66.16	0.041
66.38	0.144
66.6	0
66.82	0
67.04	1.233
67.26	0.136
67.48	0.013
67.7	0.013
67.92	0.004
68.14	0
68.36	0
68.58	0.041
68.8	0.055
69.02	0
69.24	0.05
69.46	0.468
69.68	0.1
69.9	0.011
70.12	0.023
70.34	0.143
70.56	0.041
70.78	0
71	0
71.22	0
71.44	0.266
71.66	0.3
71.88	0.001
72.1	0.063
72.32	0.045
72.54	0.854
72.76	0.497
72.98	0.035
73.2	0.001
73.42	0
73.64	0.01
73.86	0.006
74.08	0
74.3	0.371
74.52	0.828
74.74	0.271
74.96	0.097
75.18	0.045
75.4	0
75.62	0.022
75.84	0.011
76.06	0
76.28	0.033
76.5	0.014
76.72	0
76.94	0.001
77.16	0.014
77.38	0.288
77.6	0.119
77.82	0.069
78.04	0.021
78.26	0
78.48	0
78.7	0.008
78.92	0.093
79.14	0.136
79.36	0.01
79.58	0.027
79.8	0.538
80.02	0.221
80.24	0.081
80.46	0.047
80.68	0
80.9	0
81.12	0.001
81.34	0.086
81.56	0.027
81.78	0
82	0.056
82.22	0.053
82.44	0.065
82.66	0.108
82.88	0.006
83.1	0
83.32	0
83.54	0.672
83.76	0.134
83.98	0.074
84.2	0.464
84.42	0.194
84.64	0.114
84.86	0.037
85.08	0.164
85.3	0.147
85.52	0
85.74	0
85.96	0.009
86.18	0.001
86.4	0.009
86.62	0
86.84	0
87.06	0.016
87.28	0.014
87.5	0.078
87.72	0.083
87.94	0
88.16	0.004
88.38	0.038
88.6	0.032
88.82	1.1
89.04	0.53
89.26	0.591
89.48	0.178
89.7	0.001
89.92	0.002
