Measurement: Powder, Xray Data XY Processed
Mineral: Chalcopyrite
Rruff sample: R050208
Ideal chemistry: Cu^1+^Fe^3+^S^2-^_2_
Locality: Kidd Creek mine, Timmins, Ontario, Canada
Source: Lloyd Twaites
Description: Brass yellow metallic fine-grained massive
Diffraction sample description: Powder
Measured chemistry: Cu_1.00_Fe_1.00_S_2.00_
Cell parameters: a: 5.2892(2) b: 5.2892(2) c: 10.4202(6) alpha: 90. beta: 90. gamma: 90. volume: 291.51(2) crystal system: tetragonal
x	intensity
5	0
5.22	5.33887
5.44	7.43756
5.66	8.93755
5.88	1.09964
6.1	25.2874
6.32	14.8554
6.54	25.4368
6.76	38.2841
6.98	8.4943
7.2	9.32907
7.42	17.3886
7.64	24.9352
7.86	15.0351
8.08	25.6926
8.3	28.055
8.52	19.7061
8.74	22.1693
8.96	20.7939
9.18	1.09228
9.4	18.4086
9.62	45.4353
9.84	15.7567
10.06	8.0543
10.28	29.0122
10.5	16.9242
10.72	3.21683
10.94	16.2275
11.16	32.2537
11.38	1.69716
11.6	16.2108
11.82	26.5061
12.04	11.6972
12.26	13.4331
12.48	4.60443
12.7	24.9501
12.92	15.8152
13.14	2.80252
13.36	16.9712
13.58	25.6198
13.8	22.1349
14.02	14.8393
14.24	3.10712
14.46	1.09684
14.68	11.6674
14.9	16.3822
15.12	13.757
15.34	11.9275
15.56	23.5907
15.78	29.1989
16	7.41091
16.22	22.0822
16.44	21.8231
16.66	27.8968
16.88	8.18213
17.1	11.762
17.32	10.6649
17.54	35.4046
17.76	6.29365
17.98	12.5619
18.2	12.2632
18.42	8.90268
18.64	7.8967
18.86	30.5269
19.08	14.458
19.3	22.0265
19.52	16.3406
19.74	25.7197
19.96	3.42847
20.18	34.5218
20.4	2.84699
20.62	30.3166
20.84	15.7191
21.06	8.2795
21.28	25.6409
21.5	16.5681
21.72	31.2374
21.94	8.62712
22.16	1.11835
22.38	11.5719
22.6	13.3436
22.82	21.2009
23.04	20.1442
23.26	33.9289
23.48	20.7841
23.7	5.77644
23.92	15.4846
24.14	10.0469
24.36	8.05403
24.58	4.51905
24.8	10.151
25.02	24.4299
25.24	10.9141
25.46	37.6729
25.68	17.8354
25.9	17.5037
26.12	7.32336
26.34	5.6162
26.56	64.468
26.78	24.5311
27	2.72893
27.22	18.1398
27.44	21.0134
27.66	11.2603
27.88	31.4819
28.1	11.517
28.32	27.8394
28.54	46.7385
28.76	0.775726
28.98	5.44907
29.2	64.0856
29.42	931.537
29.64	89.7074
29.86	30.4865
30.08	35.5223
30.3	11.5213
30.52	0.286285
30.74	14.4087
30.96	10.5842
31.18	12.8232
31.4	24.6693
31.62	13.3175
31.84	13.0501
32.06	8.0208
32.28	23.541
32.5	24.1847
32.72	8.53903
32.94	7.4401
33.16	28.8043
33.38	32.4127
33.6	24.0914
33.82	28.3809
34.04	14.8656
34.26	34.834
34.48	21.9493
34.7	19.6172
34.92	13.2931
35.14	18.3912
35.36	37.8139
35.58	10.2762
35.8	17.59
36.02	27.1116
36.24	42.3876
36.46	32.868
36.68	22.3565
36.9	4.74451
37.12	3.697
37.34	25.8579
37.56	23.8752
37.78	3.70915
38	0.300293
38.22	2.37959
38.44	13.2652
38.66	21.3462
38.88	18.571
39.1	13.4231
39.32	21.9471
39.54	23.1196
39.76	26.2537
39.98	19.7051
40.2	13.5078
40.42	30.6373
40.64	8.5896
40.86	29.6432
41.08	0.188965
41.3	22.674
41.52	8.68148
41.74	16.6856
41.96	18.817
42.18	9.19155
42.4	16.256
42.62	27.2671
42.84	16.0566
43.06	12.4885
43.28	2.36182
43.5	26.7479
43.72	22.2501
43.94	9.72136
44.16	16.455
44.38	20.5186
44.6	1.28997
44.82	4.14681
45.04	37.2792
45.26	35.4338
45.48	18.698
45.7	20.7873
45.92	20.3511
46.14	23.5041
46.36	15.6189
46.58	22.6444
46.8	13.7303
47.02	24.2679
47.24	44.0869
47.46	1.61894
47.68	3.62869
47.9	10.7573
48.12	5.87328
48.34	3.40504
48.56	54.9987
48.78	109.27
49	136.118
49.22	161.105
49.44	40.6788
49.66	35.3584
49.88	14.6789
50.1	24.6419
50.32	8.43059
50.54	43.0066
50.76	30.5709
50.98	2.46427
51.2	11.8157
51.42	23.4839
51.64	17.2122
51.86	17.7773
52.08	9.06064
52.3	12.4058
52.52	6.1599
52.74	22.7669
52.96	27.9978
53.18	54.8321
53.4	26.8002
53.62	45.7903
53.84	5.04491
54.06	15.6935
54.28	14.7068
54.5	14.6309
54.72	6.63079
54.94	33.9262
55.16	35.8808
55.38	16.0233
55.6	7.61321
55.82	23.8518
56.04	17.6358
56.26	32.4198
56.48	13.2033
56.7	10.8329
56.92	32.5268
57.14	11.596
57.36	4.61966
57.58	5.60593
57.8	68.8249
58.02	107.647
58.24	24.4459
58.46	29.442
58.68	30.0774
58.9	9.08412
59.12	5.60644
59.34	23.876
59.56	17.559
59.78	0.175858
60	9.39793
60.22	9.47882
60.44	5.57299
60.66	17.4601
60.88	17.8651
61.1	37.1246
61.32	24.2493
61.54	13.9489
61.76	15.4254
61.98	23.7593
62.2	4.03999
62.42	22.2927
62.64	18.172
62.86	12.0338
63.08	19.0447
63.3	4.24
63.52	39.6655
63.74	31.623
63.96	18.5723
64.18	21.4394
64.4	28.9159
64.62	22.6394
64.84	24.7852
65.06	6.41997
65.28	18.4317
65.5	12.7925
65.72	19.492
65.94	28.9525
66.16	23.8005
66.38	28.628
66.6	29.2955
66.82	6.98132
67.04	18.0921
67.26	15.5507
67.48	19.6145
67.7	9.92162
67.92	7.44296
68.14	8.77091
68.36	22.7803
68.58	20.557
68.8	12.1799
69.02	13.7317
69.24	9.14911
69.46	19.0225
69.68	16.9135
69.9	31.5351
70.12	35.4587
70.34	10.939
70.56	18.539
70.78	20.0694
71	5.79218
71.22	28.1641
71.44	42.8762
71.66	33.7788
71.88	17.5956
72.1	3.28331
72.32	3.63185
72.54	4.71636
72.76	32.2077
72.98	10.2436
73.2	23.9568
73.42	4.08309
73.64	10.6205
73.86	2.39961
74.08	27.6852
74.3	16.9595
74.52	16.5822
74.74	3.83153
74.96	9.51367
75.18	32.9899
75.4	14.2735
75.62	31.5059
75.84	27.7854
76.06	12.1388
76.28	9.48482
76.5	33.7859
76.72	42.4978
76.94	24.528
77.16	39.8563
77.38	4.76884
77.6	22.7666
77.82	14.3347
78.04	9.0471
78.26	9.90232
78.48	10.0607
78.7	32.665
78.92	31.5057
79.14	34.7493
79.36	1.25875
79.58	14.9675
79.8	22.7925
80.02	8.52822
80.24	13.741
80.46	29.5416
80.68	29.4253
80.9	20.8563
81.12	22.6933
81.34	14.2212
81.56	24.4712
81.78	18.263
82	2.1299
82.22	11.4936
82.44	33.8354
82.66	9.80665
82.88	14.7148
83.1	8.55126
83.32	14.6107
83.54	20.2652
83.76	18.2806
83.98	19.7181
84.2	42.6876
84.42	13.5502
84.64	36.6216
84.86	12.6475
85.08	26.4013
85.3	8.82478
85.52	16.0947
85.74	32.7918
85.96	16.7781
86.18	32.1221
86.4	27.8297
86.62	31.0559
86.84	4.96203
87.06	8.44852
87.28	9.03839
87.5	18.8471
87.72	23.2629
87.94	6.64637
88.16	15.9815
88.38	0.53804
88.6	28.343
88.82	20.3004
89.04	19.0965
89.26	26.0682
89.48	19.5711
89.7	30.4523
89.92	15.2009
