Measurement: Powder, Xray Data XY Processed
Mineral: Chalcosiderite
Rruff sample: R060007
Ideal chemistry: Cu^2+^Fe^3+^_6_(PO_4_)_4_(OH)_8_4H_2_O
Locality: Cerro Negro mine, Carrizalillo, Chile
Source: William W. Pinch, Bob Jenkins
Description: Groups of green foliated crystals associated with pseudomalachite, R050597
Diffraction sample description: Powder, using Mo radiation
Measured chemistry: Cu_1.00_(Fe^3+^_3.69_Al_2.31_)_Σ=6_(P_1.00_O_4_)_4_(OH)_8_·4H_2_O
Cell parameters: a: 7.629 b: 7.783 c: 10.031 alpha: 67.554 beta: 68.788 gamma: 64.561 volume: 482.96 crystal system: triclinic
x	intensity
6.52	0
6.67	13.966
6.82	19.7488
6.97	1.3168
7.12	15.0992
7.27	3.65158
7.42	3.66599
7.57	10.7503
7.72	6.13229
7.87	35.9596
8.02	35.1922
8.17	51.3017
8.32	58.9847
8.47	43.6502
8.62	64.5852
8.77	67.6665
8.92	61.9522
9.07	65.6705
9.22	62.6302
9.37	52.2342
9.52	62.4028
9.67	84.5139
9.82	73.103
9.97	71.0369
10.12	66.0052
10.27	77.6038
10.42	94.1391
10.57	84.4263
10.72	192.351
10.87	358.789
11.02	388.713
11.17	245.855
11.32	124.501
11.47	148.509
11.62	194.93
11.77	180.908
11.92	175.464
12.07	207.044
12.22	210.7
12.37	158.487
12.52	104.975
12.67	88.3701
12.82	90.1672
12.97	91.5749
13.12	97.7584
13.27	108.349
13.42	127.386
13.57	176.133
13.72	272.472
13.87	291.507
14.02	244.551
14.17	140.962
14.32	58.2172
14.47	43.6354
14.62	30.5561
14.77	25.8514
14.92	18.5211
15.07	27.1679
15.22	21.5023
15.37	21.0712
15.52	4.10748
15.67	0.8685
15.82	7.23914
15.97	15.5849
16.12	12.0724
16.27	15.9442
16.42	7.54962
16.57	9.19638
16.72	11.7696
16.87	14.1435
17.02	14.9066
17.17	27.5654
17.32	48.549
17.47	43.7797
17.62	17.1275
17.77	13.5678
17.92	16.4251
18.07	15.7659
18.22	16.5169
18.37	18.0916
18.52	5.37296
18.67	15.5216
18.82	11.1971
18.97	9.74287
19.12	43.4019
19.27	62.8447
19.42	71.4829
19.57	71.1413
19.72	53.39
19.87	43.9908
20.02	28.9171
20.17	10.9542
20.32	1.46953
20.47	9.71797
20.62	15.4896
20.77	15.5685
20.92	28.3779
21.07	45.5037
21.22	42.9742
21.37	33.2131
21.52	20.0077
21.67	31.8339
21.82	48.5385
21.97	68.4806
22.12	95.0922
22.27	112.852
22.42	100.391
22.57	62.8133
22.72	19.3043
22.87	5.45125
23.02	7.19032
23.17	4.37224
23.32	10.1722
23.47	21.9192
23.62	11.2269
23.77	4.25276
23.92	1.55042
24.07	3.31483
24.22	11.7148
24.37	3.28233
24.52	10.148
24.67	18.4225
24.82	27.4363
24.97	33.3852
25.12	26.939
25.27	25.5147
25.42	27.2401
25.57	25.4252
25.72	26.1553
25.87	23.4402
26.02	20.4709
26.17	25.7962
26.32	10.6134
26.47	18.4053
26.62	22.1464
26.77	26.283
26.92	62.7903
27.07	78.0644
27.22	70.2722
27.37	59.6999
27.52	44.7509
27.67	35.173
27.82	26.7797
27.97	26.9841
28.12	28.4997
28.27	25.6715
28.42	23.784
28.57	15.0375
28.72	19.9211
28.87	29.1796
29.02	23.5074
29.17	14.8961
29.32	18.7303
29.47	11.8478
29.62	22.4131
29.77	12.1003
29.92	14.9912
30.07	16.5067
30.22	26.2224
30.37	21.922
30.52	23.5562
30.67	17.596
30.82	12.9624
30.97	2.99617
31.12	8.51186
31.27	1.83473
31.42	0.409302
31.57	5.07286
31.72	4.63513
31.87	11.6299
32.02	23.4485
32.17	24.9051
32.32	22.837
32.47	13.6919
32.62	12.4303
32.77	7.43962
32.92	0.553268
33.07	3.98524
33.22	12.1731
33.37	18.0314
33.52	23.5178
33.67	21.3629
33.82	13.4918
33.97	9.85205
34.12	13.6075
34.27	11.3612
34.42	6.26364
34.57	4.81433
34.72	0.054016
34.87	1.67618
35.02	1.35034
35.17	1.61667
35.32	2.41324
35.47	8.2148
35.62	9.13496
35.77	10.238
35.92	12.4182
36.07	5.68663
36.22	11.3327
36.37	8.43005
36.52	12.0032
36.67	7.79353
36.82	9.91157
36.97	2.53311
37.12	8.46751
37.27	7.304
37.42	4.0723
37.57	2.28694
37.72	5.01695
37.87	3.00995
38.02	9.81451
38.17	0.62413
38.32	0.688934
38.47	5.67317
38.62	3.78749
38.77	3.69751
38.92	8.13776
39.07	10.4063
39.22	1.84559
39.37	4.76724
39.52	6.243
39.67	10.7139
39.82	10.1055
39.97	7.78072
40.12	10.8416
40.27	16.1183
40.42	11.0819
40.57	0.947357
40.72	2.26396
40.87	2.29523
41.02	2.41715
41.17	4.81646
41.32	3.79477
41.47	6.26823
41.62	8.16445
41.77	11.473
41.92	9.21188
42.07	7.37076
42.22	6.27579
42.37	8.12765
42.52	7.37166
42.67	10.1604
42.82	8.25449
42.97	10.6543
43.12	6.26938
43.27	6.42141
43.42	8.13003
43.57	8.75272
43.72	5.19274
43.87	9.6263
44.02	5.44107
44.17	4.73975
44.32	7.58039
44.47	7.68825
44.62	5.52461
44.77	7.42514
44.92	6.4574
45.07	2.45945
45.22	1.07136
45.37	5.82726
45.52	0.4608
45.67	4.12599
45.82	5.72197
45.97	5.30087
46.12	0.215919
46.27	4.27657
46.42	6.62349
46.57	1.22513
46.72	2.31101
46.87	5.40083
47.02	3.55523
47.17	0.461113
47.32	3.12147
47.47	5.23467
47.62	2.78441
47.77	3.1133
47.92	4.11446
48.07	3.32658
48.22	10.9308
48.37	7.57742
48.52	0.485588
48.67	2.2057
48.82	1.43051
48.97	8.6929
49.12	6.73274
49.27	8.90136
49.42	5.66905
49.57	3.52308
49.72	8.36877
49.87	1.25745
50.02	4.44986
50.17	5.56175
50.32	5.49279
50.47	1.38428
50.62	1.32326
50.77	8.23038
50.92	12.8825
51.07	8.47025
51.22	6.15009
51.37	8.95466
51.52	4.104
51.67	5.78574
51.82	6.65893
51.97	5.34766
52.12	2.9967
52.27	5.42152
52.42	6.54382
52.57	1.26138
52.72	4.48063
52.87	9.07921
53.02	8.49355
53.17	5.20377
53.32	11.1994
53.47	5.48592
53.62	2.72549
53.77	5.339
53.92	6.64311
54.07	4.74423
54.22	8.32471
54.37	10.9954
54.52	7.39932
54.67	7.25659
54.82	5.26688
54.97	9.65884
55.12	2.70884
55.27	13.4987
55.42	11.4372
55.57	4.0012
55.72	2.7235
55.87	5.04946
56.02	4.46208
56.17	8.59354
56.32	4.00265
56.47	4.18929
56.62	4.70737
56.77	5.26401
56.92	4.8517
57.07	0.178963
57.22	11.8548
57.37	0.682831
57.52	8.44504
57.67	5.69073
57.82	4.64185
57.97	2.15673
58.12	1.58414
58.27	2.92369
58.42	2.96706
58.57	9.71725
58.72	7.31974
58.87	6.41546
59.02	4.28346
59.17	0.821678
