Measurement: Powder, Xray Data XY Processed
Mineral: Chalcanthite
Rruff sample: R050354
Ideal chemistry: Cu^2+^S^6+^O_4_5H_2_O
Locality: Utah, USA
Source: California Institute of Technology
Description: Group of blue parallel prismatic crystals
Diffraction sample description: Powder
Measured chemistry: Cu_1.00_S_1.00_O_4_Â·5H_2_O
Cell parameters: a: 6.1161(3) b: 10.7129(7) c: 5.9593(4) alpha: 82.376(5) beta: 107.301(5) gamma: 102.593(4) volume: 362.86(3) crystal system: triclinic
x	intensity
5	0
5.22	5.1682
5.44	11.9636
5.66	11.0955
5.88	8.32372
6.1	28.7324
6.32	1.73195
6.54	22.1752
6.76	18.9284
6.98	19.7722
7.2	32.1802
7.42	13.0493
7.64	29.5237
7.86	12.865
8.08	27.8605
8.3	10.3671
8.52	79.9965
8.74	9.66882
8.96	9.78261
9.18	14.7761
9.4	11.1314
9.62	15.9398
9.84	9.19267
10.06	3.44815
10.28	23.3746
10.5	5.44248
10.72	21.0132
10.94	2.50376
11.16	30.9052
11.38	19.414
11.6	15.9283
11.82	8.63876
12.04	20.112
12.26	13.1556
12.48	8.00513
12.7	21.4157
12.92	14.4947
13.14	2.26551
13.36	10.1169
13.58	2.07307
13.8	22.0361
14.02	20.4794
14.24	18.07
14.46	17.3956
14.68	7.96217
14.9	14.4811
15.12	10.3994
15.34	6.46558
15.56	136.324
15.78	33.0819
16	8.78765
16.22	586.785
16.44	4.78665
16.66	13.5343
16.88	26.5244
17.1	19.9784
17.32	94.0207
17.54	7.96899
17.76	1.0891
17.98	8.05729
18.2	27.7948
18.42	57.3851
18.64	32.4816
18.86	796.934
19.08	227.085
19.3	12.9999
19.52	1.76519
19.74	19.0607
19.96	19.3386
20.18	28.4738
20.4	20.0971
20.62	22.771
20.84	113.902
21.06	11.7216
21.28	16.052
21.5	1.1837
21.72	11.6947
21.94	6.65785
22.16	42.6487
22.38	343.638
22.6	26.722
22.82	12.1617
23.04	7.03107
23.26	6.47501
23.48	10.0341
23.7	10.2726
23.92	41.3596
24.14	105.66
24.36	5.15016
24.58	8.11246
24.8	17.1529
25.02	125.745
25.24	102.592
25.46	11.4173
25.68	29.3187
25.9	50.3322
26.12	6.41401
26.34	4.79439
26.56	7.68723
26.78	8.8186
27	316.733
27.22	21.2465
27.44	142.076
27.66	10.3107
27.88	7.78645
28.1	59.3859
28.32	0.431343
28.54	32.13
28.76	14.7212
28.98	11.0447
29.2	66.0347
29.42	171.708
29.64	4.56251
29.86	7.94145
30.08	21.5151
30.3	5.84042
30.52	0.982315
30.74	32.9968
30.96	6.43976
31.18	49.1368
31.4	7.38536
31.62	65.9573
31.84	20.2395
32.06	46.4207
32.28	15.1247
32.5	62.4701
32.72	34.3915
32.94	62.8317
33.16	7.44504
33.38	12.2982
33.6	23.6421
33.82	12.6405
34.04	0.900154
34.26	17.21
34.48	8.29408
34.7	25.8806
34.92	28.5741
35.14	64.1702
35.36	16.6393
35.58	21.0276
35.8	20.0481
36.02	10.574
36.24	2.39665
36.46	25.5401
36.68	33.8038
36.9	168.537
37.12	56.4968
37.34	24.442
37.56	17.2884
37.78	0.24128
38	14.0836
38.22	43.0958
38.44	1.88192
38.66	13.1939
38.88	1.02104
39.1	39.7785
39.32	7.23283
39.54	6.86356
39.76	14.6493
39.98	15.1223
40.2	19.4243
40.42	12.4989
40.64	12.8091
40.86	15.5021
41.08	6.65226
41.3	6.31816
41.52	3.59518
41.74	4.34793
41.96	6.6445
42.18	27.7938
42.4	14.6979
42.62	5.56855
42.84	13.6463
43.06	23.38
43.28	9.40435
43.5	38.1313
43.72	8.66832
43.94	17.4
44.16	8.88452
44.38	13.3966
44.6	37.0407
44.82	50.1888
45.04	26.7707
45.26	13.4803
45.48	30.9667
45.7	20.4312
45.92	30.3773
46.14	10.2399
46.36	9.68749
46.58	4.87614
46.8	25.4028
47.02	18.9745
47.24	6.21432
47.46	73.1515
47.68	13.1348
47.9	25.8425
48.12	73.5185
48.34	25.6645
48.56	21.601
48.78	4.76228
49	30.9672
49.22	20.3306
49.44	27.412
49.66	16.9911
49.88	53.828
50.1	34.1092
50.32	27.0882
50.54	50.4185
50.76	21.7425
50.98	9.6143
51.2	40.85
51.42	2.68919
51.64	40.7076
51.86	19.5331
52.08	19.753
52.3	19.189
52.52	33.5193
52.74	8.55923
52.96	17.7522
53.18	7.04526
53.4	7.33339
53.62	18.8195
53.84	20.9492
54.06	14.7833
54.28	12.7442
54.5	4.99511
54.72	20.9208
54.94	8.7305
55.16	7.05527
55.38	16.0614
55.6	15.5711
55.82	14.8179
56.04	21.4386
56.26	29.7046
56.48	104.482
56.7	22.3888
56.92	66.2171
57.14	26.4636
57.36	6.64572
57.58	19.9523
57.8	4.23979
58.02	0.111778
58.24	33.2242
58.46	27.2987
58.68	14.0404
58.9	50.9848
59.12	7.65894
59.34	30.932
59.56	16.4535
59.78	10.4035
60	11.6052
60.22	4.61977
60.44	27.3823
60.66	4.67063
60.88	10.5038
61.1	0.700138
61.32	17.5456
61.54	4.47664
61.76	20.4458
61.98	15.2218
62.2	13.6986
62.42	27.7209
62.64	18.23
62.86	20.5106
63.08	3.21633
63.3	4.3393
63.52	12.3832
63.74	26.1201
63.96	7.22787
64.18	9.62801
64.4	23.7934
64.62	5.00268
64.84	18.0618
65.06	44.2786
65.28	13.034
65.5	20.9552
65.72	8.12882
65.94	12.9898
66.16	18.5713
66.38	16.2755
66.6	15.6895
66.82	8.71382
67.04	31.9646
67.26	0.081268
67.48	24.0071
67.7	4.27642
67.92	29.1457
68.14	9.09567
68.36	12.7431
68.58	23.2025
68.8	25.2062
69.02	54.2859
69.24	18.8044
69.46	7.37066
69.68	2.47447
69.9	2.13906
70.12	12.1754
70.34	20.4951
70.56	25.4396
70.78	11.3411
71	10.0332
71.22	9.35482
71.44	3.39672
71.66	9.82139
71.88	28.4109
72.1	23.5945
72.32	24.7527
72.54	2.85588
72.76	19.7196
72.98	13.8432
73.2	31.3951
73.42	15.1043
73.64	5.94532
73.86	10.291
74.08	32.6266
74.3	21.9296
74.52	0.523766
74.74	5.39664
74.96	18.2136
75.18	22.5407
75.4	23.2633
75.62	14.9296
75.84	20.6622
76.06	3.69677
76.28	12.5514
76.5	22.3139
76.72	26.4293
76.94	16.9465
77.16	14.6705
77.38	22.9047
77.6	5.27229
77.82	2.8158
78.04	10.9946
78.26	18.9538
78.48	17.0221
78.7	1.99682
78.92	17.7858
79.14	22.5683
79.36	14.3631
79.58	11.289
79.8	10.0146
80.02	31.382
80.24	3.73186
80.46	3.07373
80.68	11.0006
80.9	3.72482
81.12	22.5574
81.34	15.646
81.56	12.049
81.78	19.7536
82	7.69625
82.22	20.5637
82.44	18.4433
82.66	7.31356
82.88	1.86943
83.1	12.9026
83.32	6.08026
83.54	7.36796
83.76	1.45545
83.98	7.37006
84.2	8.63314
84.42	9.53731
84.64	18.511
84.86	9.34523
85.08	24.5313
85.3	0.262844
85.52	9.08749
85.74	24.0525
85.96	1.75771
86.18	22.4715
86.4	9.02782
86.62	18.4126
86.84	0.959949
87.06	12.1996
87.28	2.31522
87.5	20.3601
87.72	26.7869
87.94	0.70599
88.16	15.1261
88.38	13.7119
88.6	6.13273
88.82	10.5667
89.04	4.96571
89.26	10.1167
89.48	13.37
89.7	17.3928
89.92	15.5588
