Measurement: Powder, Xray Data XY Processed
Mineral: Chapmanite
Rruff sample: R060910
Ideal chemistry: Fe^3+^_2_Sb^3+^(SiO_4_)_2_(OH)
Locality: Cobalt, Ontario, Canada
Source: Royal Ontario Museum
Description: Greenish yellow massive
Diffraction sample description: Powder
Cell parameters: a: 5.211(2) b: 8.993(1) c: 7.770(1) alpha: 90 beta: 101.650(9) gamma: 90 volume: 356.64(9) crystal system: monoclinic
x	intensity
5	0
5.22	14.9241
5.44	15.7529
5.66	16.704
5.88	16.3383
6.1	16.9262
6.32	13.3193
6.54	22.1056
6.76	24.914
6.98	7.32588
7.2	27.7169
7.42	28.1417
7.64	6.00018
7.86	25.3393
8.08	11.1094
8.3	18.7878
8.52	4.30196
8.74	9.4905
8.96	8.96842
9.18	6.35848
9.4	22.0356
9.62	11.1394
9.84	0.056892
10.06	6.8587
10.28	16.4603
10.5	12.723
10.72	23.0746
10.94	4.48109
11.16	6.84302
11.38	10.2818
11.6	252.851
11.82	12.8126
12.04	20.5591
12.26	42.6786
12.48	36.2992
12.7	16.5074
12.92	0.690933
13.14	6.26383
13.36	24.5584
13.58	1.47526
13.8	11.6139
14.02	1.21192
14.24	18.8374
14.46	26.0744
14.68	12.1133
14.9	18.5661
15.12	24.819
15.34	17.7887
15.56	10.2101
15.78	6.73178
16	12.172
16.22	3.77094
16.44	34.3227
16.66	13.0933
16.88	2.52567
17.1	12.8624
17.32	3.18067
17.54	31.6817
17.76	28.5482
17.98	12.4858
18.2	17.5
18.42	23.5039
18.64	3.36118
18.86	22.1102
19.08	5.91433
19.3	7.94792
19.52	34.9795
19.74	16.7736
19.96	21.6071
20.18	17.3599
20.4	22.935
20.62	20.4098
20.84	6.84799
21.06	10.7735
21.28	44.1432
21.5	14.6087
21.72	21.1299
21.94	4.44862
22.16	5.26004
22.38	12.2703
22.6	20.0616
22.82	29.3558
23.04	49.4588
23.26	34.5515
23.48	23.7473
23.7	0.601799
23.92	22.6797
24.14	10.4981
24.36	27.8286
24.58	7.79912
24.8	31.2652
25.02	39.5252
25.24	17.7542
25.46	16.6982
25.68	13.8885
25.9	6.67573
26.12	12.071
26.34	9.33092
26.56	14.5418
26.78	12.066
27	6.19311
27.22	1.96355
27.44	5.89854
27.66	16.9202
27.88	17.8057
28.1	85.6928
28.32	13.5666
28.54	4.41783
28.76	1.43341
28.98	3.59196
29.2	23.0299
29.42	40.6669
29.64	10.4521
29.86	5.41988
30.08	21.4826
30.3	10.3211
30.52	13.2258
30.74	93.7015
30.96	14.9891
31.18	13.2533
31.4	25.8253
31.62	10.4449
31.84	23.3405
32.06	6.34228
32.28	10.0661
32.5	17.5531
32.72	8.98313
32.94	14.6773
33.16	5.8185
33.38	13.3226
33.6	35.6261
33.82	8.16982
34.04	14.6405
34.26	7.85636
34.48	10.5019
34.7	81.0614
34.92	27.4997
35.14	6.88594
35.36	40.9771
35.58	13.4382
35.8	10.4921
36.02	13.4193
36.24	13.2796
36.46	14.9367
36.68	4.40383
36.9	20.9623
37.12	15.6634
37.34	10.5778
37.56	20.271
37.78	14.7142
38	24.4766
38.22	20.9367
38.44	15.3908
38.66	22.1722
38.88	16.2428
39.1	2.31941
39.32	15.3868
39.54	1.10793
39.76	8.17535
39.98	11.0196
40.2	18.5852
40.42	13.5996
40.64	9.14024
40.86	13.2155
41.08	14.9731
41.3	14.2975
41.52	12.8918
41.74	23.258
41.96	19.3498
42.18	12.8732
42.4	2.60228
42.62	26.4219
42.84	5.91109
43.06	23.1976
43.28	9.43749
43.5	19.7557
43.72	12.7569
43.94	10.5408
44.16	1.80423
44.38	21.3139
44.6	16.894
44.82	4.45929
45.04	0.898689
45.26	12.6922
45.48	15.8827
45.7	10.58
45.92	8.18063
46.14	33.3921
46.36	9.79789
46.58	1.50568
46.8	18.5111
47.02	11.8548
47.24	8.26441
47.46	15.7504
47.68	26.0767
47.9	9.06123
48.12	14.799
48.34	20.6026
48.56	8.60479
48.78	17.4054
49	5.19189
49.22	18.4254
49.44	7.71011
49.66	12.846
49.88	8.81918
50.1	18.9474
50.32	16.825
50.54	4.78619
50.76	19.6219
50.98	3.68927
51.2	12.7377
51.42	4.1941
51.64	18.4029
51.86	6.56461
52.08	16.6758
52.3	18.281
52.52	2.04645
52.74	17.1578
52.96	18.2909
53.18	7.30235
53.4	14.537
53.62	16.5928
53.84	1.92044
54.06	11.5342
54.28	7.44553
54.5	7.46172
54.72	30.0097
54.94	19.6513
55.16	22.7806
55.38	17.0318
55.6	29.8218
55.82	3.80132
56.04	10.5091
56.26	16.5555
56.48	2.98867
56.7	12.2958
56.92	2.30889
57.14	24.0075
57.36	18.1618
57.58	12.1021
57.8	0.370846
58.02	11.96
58.24	11.4339
58.46	3.80873
58.68	13.2763
58.9	28.6235
59.12	9.43241
59.34	15.6857
59.56	13.7027
59.78	19.3878
60	9.72766
60.22	7.5861
60.44	8.45346
60.66	22.2747
60.88	7.15752
61.1	8.9752
61.32	29.143
61.54	4.47124
61.76	14.384
61.98	6.62397
62.2	9.21606
62.42	18.1891
62.64	6.15068
62.86	10.1689
63.08	0.73735
63.3	2.82004
63.52	6.02499
63.74	15.8414
63.96	12.1436
64.18	13.5732
64.4	14.5348
64.62	9.51233
64.84	5.75089
65.06	9.65475
65.28	7.42473
65.5	13.4623
65.72	14.8226
65.94	3.29725
66.16	7.74542
66.38	7.98326
66.6	20.1635
66.82	3.26718
67.04	4.38097
67.26	8.22091
67.48	9.61274
67.7	26.2576
67.92	12.1916
68.14	19.0275
68.36	21.1223
68.58	14.1989
68.8	18.0443
69.02	15.3193
69.24	4.57625
69.46	9.70685
69.68	12.1569
69.9	3.57493
70.12	16.9016
70.34	19.2083
70.56	7.38593
70.78	12.9069
71	5.07773
71.22	10.3731
71.44	10.4064
71.66	13.5465
71.88	16.6108
72.1	1.33474
72.32	13.2021
72.54	4.02778
72.76	8.59609
72.98	8.64939
73.2	13.6434
73.42	9.41397
73.64	8.4535
73.86	5.23154
74.08	6.25784
74.3	10.1085
74.52	5.22738
74.74	14.2099
74.96	10.9783
75.18	12.4892
75.4	11.4913
75.62	2.67056
75.84	10.8362
76.06	19.1154
76.28	1.11765
76.5	4.85194
76.72	18.3516
76.94	7.37009
77.16	3.99588
77.38	1.3633
77.6	6.20775
77.82	7.29457
78.04	0.522873
78.26	24.5465
78.48	9.40034
78.7	5.36974
78.92	8.53477
79.14	1.66313
79.36	3.71403
79.58	5.76786
79.8	0.274393
80.02	11.8367
80.24	2.74603
80.46	8.58685
80.68	15.4487
80.9	6.23444
81.12	17.348
81.34	7.6882
81.56	11.9058
81.78	9.96102
82	14.701
82.22	8.51136
82.44	6.22298
82.66	4.78484
82.88	10.9204
83.1	1.7919
83.32	18.9508
83.54	0.080069
83.76	16.4635
83.98	16.4681
84.2	9.02447
84.42	5.44927
84.64	2.32863
84.86	1.50735
85.08	18.1526
85.3	11.0951
85.52	23.9415
85.74	3.46178
85.96	11.2728
86.18	1.24709
86.4	8.90738
86.62	19.8438
86.84	8.87677
87.06	11.3681
87.28	6.80609
87.5	11.8702
87.72	6.1866
87.94	12.3722
88.16	13.5518
88.38	22.6104
88.6	9.57689
88.82	3.39585
89.04	6.7984
89.26	7.84278
89.48	8.4485
89.7	5.71865
89.92	1.22379
