Measurement: Powder, Xray Data XY Processed
Mineral: Chenevixite
Rruff sample: R040166
Ideal chemistry: Cu^2+^Fe^3+^(As^5+^O_4_)(OH)_2_
Locality: Volcanic Sunnyside mine, Santa Cruz County, Arizona, USA
Source: Andy Anderson
Description: Green earthy massive
Diffraction sample description: Powder
Measured chemistry: Cu_2.00_(Fe^3+^_1.98_[box]_0.02_)_Σ=2_((As_0.94_S_0.06_)O_4_)_2_(OH)_4_·1.49H_2_O
Cell parameters: a: 5.720(2) b: 5.182(1) c: 29.293(9) alpha: 90 beta: 88.92(7) gamma: 90 volume: 868.1(0) crystal system: monoclinic
x	intensity
5	0.04126
5.22	22.234
5.44	20.0223
5.66	5.28214
5.88	26.5993
6.1	23.017
6.32	14.7199
6.54	17.7314
6.76	2.49938
6.98	16.7954
7.19	18.9113
7.41	15.274
7.63	9.90446
7.85	6.82561
8.07	23.3728
8.29	7.68148
8.51	22.9042
8.73	4.14454
8.95	29.5322
9.17	4.54161
9.39	0.229111
9.61	19.2744
9.83	30.5581
10.05	12.5503
10.27	16.7739
10.49	4.27282
10.71	10.6391
10.93	33.1736
11.15	15.3683
11.37	23.0029
11.59	13.1028
11.81	26.6106
12.03	27.4414
12.25	4.36229
12.47	6.63371
12.69	3.83942
12.91	14.9816
13.13	10.2169
13.35	33.091
13.57	16.0168
13.79	16.8412
14.01	42.7884
14.23	21.5205
14.45	28.9355
14.67	15.691
14.89	31.2896
15.11	24.4462
15.33	7.94645
15.55	17.365
15.77	8.05627
15.99	16.8622
16.21	13.4161
16.43	5.8969
16.65	36.639
16.87	4.2964
17.09	13.287
17.31	6.74617
17.54	19.7154
17.76	3.53188
17.98	33.4436
18.2	29.468
18.42	0.511169
18.64	7.24883
18.86	1.08261
19.08	24.2036
19.3	22.0649
19.52	16.4158
19.74	2.04392
19.96	17.4594
20.18	15.0081
20.4	28.2907
20.62	27.4768
20.84	18.8331
21.06	32.2683
21.28	33.5834
21.5	28.3654
21.72	13.4806
21.94	17.0006
22.16	2.8634
22.38	21.6428
22.6	23.759
22.82	17.368
23.04	40.3993
23.26	16.1193
23.48	49.5724
23.7	18.9464
23.92	22.7009
24.14	2.27763
24.36	12.615
24.58	27.2878
24.8	23.265
25.02	185.199
25.24	106.279
25.46	42.5966
25.68	10.545
25.9	13.5593
26.12	23.4366
26.34	0.970818
26.56	21.4249
26.78	34.2405
27	30.8816
27.22	19.5883
27.44	11.6183
27.66	18.4043
27.88	26.3471
28.1	22.9734
28.32	5.51224
28.54	17.991
28.76	14.4043
28.98	3.04203
29.2	19.432
29.42	5.21181
29.64	7.54926
29.86	38.448
30.08	40.9864
30.3	27.5404
30.52	5.73347
30.74	5.08812
30.96	29.2132
31.19	22.3437
31.41	24.8707
31.63	17.8586
31.85	21.7982
32.07	28.6551
32.29	4.47146
32.51	30.7291
32.73	23.4415
32.95	21.0908
33.17	11.2636
33.39	25.093
33.61	25.1927
33.83	10.9016
34.05	40.2216
34.27	0.526558
34.49	4.80252
34.71	26.9963
34.93	26.6048
35.15	56.8749
35.37	68.8069
35.59	20.762
35.81	48.3509
36.03	33.8604
36.25	37.1809
36.47	82.4025
36.69	55.3774
36.91	48.4037
37.13	2.38453
37.35	0.810295
37.57	26.0615
37.79	16.7671
38.01	17.7839
38.23	21.4251
38.45	27.1032
38.67	33.4722
38.89	19.8874
39.11	25.5379
39.33	43.0145
39.55	26.9234
39.77	6.94085
39.99	7.67719
40.21	12.8115
40.43	20.852
40.65	23.989
40.87	18.6666
41.09	35.6243
41.31	25.731
41.53	17.1412
41.75	25.9046
41.97	10.8584
42.19	31.3152
42.41	8.44907
42.63	16.8576
42.85	19.9845
43.07	0.56163
43.29	16.7523
43.51	12.1115
43.73	27.7295
43.95	10.5393
44.17	41.0071
44.39	32.7685
44.61	19.0675
44.83	5.96915
45.05	10.7175
45.27	8.10374
45.49	22.4717
45.71	19.58
45.93	13.7116
46.15	32.1846
46.37	6.91269
46.59	10.4609
46.81	22.0182
47.03	13.3762
47.25	12.7819
47.47	34.9756
47.69	14.7645
47.91	26.3392
48.13	22.1689
48.35	5.93668
48.57	12.0779
48.79	10.3567
49.01	37.3388
49.23	42.6355
49.45	33.3416
49.67	21.0268
49.89	36.5239
50.11	8.38815
50.33	20.6885
50.55	0.549217
50.77	19.7166
50.99	19.0603
51.21	42.5222
51.43	5.72243
51.65	9.49603
51.87	25.5174
52.09	22.5805
52.31	29.8107
52.53	35.0303
52.75	11.9594
52.97	12.9178
53.19	18.9102
53.41	44.9158
53.63	19.1088
53.85	9.81905
54.07	22.6128
54.29	13.2312
54.51	20.2686
54.73	16.8798
54.95	8.09679
55.17	19.3841
55.39	23.7564
55.61	33.8869
55.83	28.6332
56.05	17.3932
56.27	6.37418
56.49	30.3107
56.71	6.71285
56.93	5.26092
57.15	57.9788
57.37	89.835
57.59	39.6838
57.81	14.0224
58.03	31.8895
58.25	1.61469
58.47	1.99626
58.69	17.0243
58.91	9.27587
59.13	2.01135
59.35	1.51759
59.57	30.7359
59.79	32.4643
60.01	15.1365
60.23	17.7855
60.45	18.2469
60.67	19.4674
60.89	23.7878
61.11	9.35122
61.33	17.72
61.55	6.42052
61.77	23.5031
61.99	21.3785
62.21	23.8579
62.43	28.6601
62.65	15.6188
62.87	33.1711
63.09	73.8661
63.31	34.8573
63.53	5.95457
63.75	18.8908
63.97	7.43418
64.19	6.55003
64.41	47.703
64.63	15.7246
64.85	6.75056
65.07	32.4234
65.29	38.6095
65.51	10.334
65.73	11.9813
65.95	17.5368
66.17	35.6583
66.39	26.1611
66.61	15.8306
66.83	21.1265
67.05	29.4838
67.27	15.9048
67.49	24.2156
67.71	2.43794
67.93	0.994362
68.15	19.286
68.37	1.01212
68.59	13.0483
68.81	32.8949
69.03	26.9989
69.25	8.27903
69.47	8.26585
69.69	3.8748
69.91	1.8291
70.13	19.6014
70.35	22.579
70.57	22.4152
70.79	44.9136
71.01	39.3272
71.23	26.3291
71.45	12.3675
71.67	9.51989
71.89	8.20158
72.12	10.291
72.34	6.40377
72.56	11.7217
72.78	29.8446
73	25.9148
73.22	25.5359
73.44	23.2982
73.66	37.3267
73.88	15.1803
74.1	21.5262
74.32	10.9312
74.54	6.48736
74.76	2.26287
74.98	18.0051
75.2	23.8129
75.42	18.9297
75.64	27.795
75.86	17.3085
76.08	8.89771
76.3	24.8639
76.52	13.0184
76.74	8.81812
76.96	4.23824
77.18	19.415
77.4	8.79652
77.62	19.8522
77.84	17.7545
78.06	19.9249
78.28	15.7441
78.5	3.04694
78.72	34.1437
78.94	10.1463
79.16	24.0615
79.38	14.7837
79.6	17.7547
79.82	4.96937
80.04	4.18388
80.26	17.7242
80.48	30.9071
80.7	20.7477
80.92	14.5673
81.14	16.8889
81.36	5.74227
81.58	2.32184
81.8	39.4535
82.02	23.4987
82.24	10.3271
82.46	2.51524
82.68	41.4154
82.9	41.1946
83.12	1.7664
83.34	13.7584
83.56	17.1676
83.78	3.28329
84	21.2945
84.22	11.8499
84.44	20.1519
84.66	45.811
84.88	23.1636
85.1	5.8939
85.32	8.85531
85.54	1.57687
85.76	36.8721
85.98	14.4065
86.2	8.03015
86.42	8.94713
86.64	1.12071
86.86	36.2286
87.08	33.7136
87.3	28.6915
87.52	1.86566
87.74	31.962
87.96	18.4943
88.18	3.95485
88.4	10.0637
88.62	37.8454
88.84	14.6703
89.06	9.68541
89.28	26.7384
89.5	17.4818
89.72	5.97481
89.94	27.3034
