Measurement: Powder, Xray Data XY Processed
Mineral: Chevkinite-(Ce)
Rruff sample: R060282
Ideal chemistry: Ce^3+^_4_(Ti^4+^,Fe^2+^,Fe^3+^)_5_O_8_(Si_2_O_7_)_2_
Locality: Arondu, Basha Valley, Baltistan, Pakistan
Source: Herb Obodda
Description: Black fragment
Diffraction sample description: Powder
Measured chemistry: (Ce_2.04_La_0.79_Nd_0.75_Ca_0.42_)_Σ=4_(Ti_2.79_Fe^2+^_1.83_Fe^3+^_0.14_Mg_0.11_Th_0.05_Nb^5+^_0.05_Al_0.03_)_Σ=5_O_8_(Si_2.00_O_7_)_2_ ; lighter phase
Cell parameters: a: 13.379(3) b: 5.731(1) c: 11.047(2) alpha: 90 beta: 100.62(1) gamma: 90 volume: 832.5(2) crystal system: monoclinic
x	intensity
5	0
5.22	2.708
5.44	4.373
5.66	12.58
5.88	9.139
6.1	8.539
6.32	10.236
6.54	10.537
6.76	10.782
6.98	12.042
7.2	8.421
7.42	11.104
7.64	2.478
7.86	9.941
8.08	12.448
8.3	3.966
8.52	10.663
8.74	5.912
8.96	8.142
9.18	16.403
9.4	9.956
9.62	5.925
9.84	9.874
10.06	11.427
10.28	9.691
10.5	10.557
10.72	6.197
10.94	9.112
11.16	5.322
11.38	7.154
11.6	3.18
11.82	5.727
12.04	2.693
12.26	6.952
12.48	15.014
12.7	4.082
12.92	6.296
13.14	7.361
13.36	7.421
13.58	7.381
13.8	15.539
14.02	10.495
14.24	7.542
14.46	1.579
14.68	8.46
14.9	0.726
15.12	7.346
15.34	7.993
15.56	12.024
15.78	2.113
16	4.767
16.22	11.493
16.44	12.325
16.66	8.297
16.88	1.975
17.1	9.751
17.32	7.505
17.54	6.767
17.76	6.935
17.98	5.718
18.2	34.445
18.42	7.536
18.64	3.546
18.86	1.151
19.08	11.676
19.3	49.872
19.52	16.039
19.74	10.078
19.96	4.002
20.18	8.256
20.4	9.654
20.62	11.085
20.84	7.505
21.06	9.578
21.28	9.828
21.5	13.103
21.72	4.222
21.94	8.252
22.16	12.571
22.38	1.744
22.6	8.454
22.82	3.132
23.04	13.439
23.26	10.353
23.48	7.923
23.7	7.333
23.92	7.597
24.14	1.151
24.36	4.889
24.58	33.083
24.8	14.455
25.02	5.334
25.24	0.757
25.46	9.475
25.68	26.764
25.9	11.076
26.12	5.864
26.34	9.116
26.56	5.752
26.78	13.603
27	8.5
27.22	7.092
27.44	9.753
27.66	2.427
27.88	4.657
28.1	64.245
28.32	44.781
28.54	11.801
28.76	2.311
28.98	39.964
29.2	13.055
29.42	5.017
29.64	4.697
29.86	21.887
30.08	2.178
30.3	15.029
30.52	4.208
30.74	2.145
30.96	20.027
31.18	47.031
31.4	2.811
31.62	0.373
31.84	10.375
32.06	2.875
32.28	8.875
32.5	47.173
32.72	9.331
32.94	84.409
33.16	23.292
33.38	17.586
33.6	9.028
33.82	9.569
34.04	3.727
34.26	11.884
34.48	10.408
34.7	7.668
34.92	2.798
35.14	3.937
35.36	20.863
35.58	19.349
35.8	13.787
36.02	4.168
36.24	10.036
36.46	8.476
36.68	7.853
36.9	7.072
37.12	12.997
37.34	12.038
37.56	6.134
37.78	2.525
38	0.353
38.22	14.424
38.44	8.061
38.66	1.126
38.88	10.044
39.1	4.854
39.32	1.469
39.54	3.494
39.76	11.58
39.98	4.758
40.2	13.675
40.42	4.616
40.64	1.337
40.86	5.146
41.08	2.781
41.3	9.17
41.52	26.246
41.74	14.453
41.96	3.317
42.18	7.264
42.4	2.636
42.62	4.904
42.84	0.071
43.06	16.897
43.28	12
43.5	8.487
43.72	17.62
43.94	12.646
44.16	10.28
44.38	1.322
44.6	7.295
44.82	11.095
45.04	2.611
45.26	22.393
45.48	0.748
45.7	11.114
45.92	23.516
46.14	14.05
46.36	15.488
46.58	7.076
46.8	4.687
47.02	15.725
47.24	9.095
47.46	1.678
47.68	9.975
47.9	1.194
48.12	3.447
48.34	7.721
48.56	5.777
48.78	2.458
49	2.022
49.22	7.447
49.44	7.727
49.66	7.842
49.88	4.405
50.1	4.256
50.32	12.166
50.54	7.949
50.76	13.516
50.98	19.543
51.2	17.926
51.42	7.682
51.64	9.37
51.86	7.748
52.08	5.287
52.3	4.088
52.52	23.805
52.74	21.505
52.96	20.132
53.18	1.004
53.4	13.625
53.62	9.98
53.84	10.063
54.06	0.171
54.28	3.192
54.5	18.374
54.72	16.206
54.94	8.565
55.16	4.793
55.38	8.113
55.6	11.391
55.82	8.648
56.04	9.946
56.26	18.099
56.48	10.779
56.7	5.046
56.92	1.136
57.14	0.886
57.36	11.104
57.58	3.325
57.8	4.714
58.02	2.067
58.24	10.067
58.46	9.176
58.68	13.204
58.9	8.502
59.12	6.69
59.34	13.672
59.56	11.598
59.78	10.441
60	5.452
60.22	6.179
60.44	9.712
60.66	0.505
60.88	6.359
61.1	14.204
61.32	6.92
61.54	0.927
61.76	16.903
61.98	10.958
62.2	6.358
62.42	10.526
62.64	6.867
62.86	7.145
63.08	7.002
63.3	13.085
63.52	7.034
63.74	2.298
63.96	5.524
64.18	3.405
64.4	5.219
64.62	5.706
64.84	1.222
65.06	10.18
65.28	6.878
65.5	13.123
65.72	12.087
65.94	10.327
66.16	10.425
66.38	15.636
66.6	6.76
66.82	12.511
67.04	1.686
67.26	18.82
67.48	0.311
67.7	9.053
67.92	6.897
68.14	8.895
68.36	0.295
68.58	5.947
68.8	13.029
69.02	9.918
69.24	8.256
69.46	8.176
69.68	5.08
69.9	12.336
70.12	19.056
70.34	9.98
70.56	5.012
70.78	2.105
71	7.939
71.22	8.413
71.44	8.576
71.66	8.72
71.88	2.901
72.1	6.174
72.32	9.874
72.54	9.851
72.76	5.74
72.98	6.94
73.2	5.686
73.42	12.601
73.64	10.87
73.86	8.653
74.08	12.485
74.3	1.465
74.52	8.202
74.74	2.299
74.96	9.362
75.18	15.592
75.4	0.692
75.62	4.326
75.84	6.719
76.06	6.007
76.28	7.214
76.5	7.636
76.72	6.677
76.94	0.732
77.16	20.583
77.38	11.646
77.6	4.174
77.82	11.824
78.04	9.388
78.26	1.924
78.48	1.87
78.7	0.194
78.92	7.887
79.14	1.618
79.36	5.517
79.58	4.428
79.8	3.608
80.02	3.308
80.24	13.812
80.46	5.064
80.68	9.538
80.9	12.532
81.12	10.811
81.34	4.541
81.56	10.407
81.78	3.818
82	7.056
82.22	8.994
82.44	12.416
82.66	2.33
82.88	1.386
83.1	4.581
83.32	5.675
83.54	10.52
83.76	11.392
83.98	2.803
84.2	6.462
84.42	0.51
84.64	6.176
84.86	5.824
85.08	1.68
85.3	10.577
85.52	9.382
85.74	1.361
85.96	8.322
86.18	3.409
86.4	9.286
86.62	4.532
86.84	10.659
87.06	2.048
87.28	9.017
87.5	11.328
87.72	6.361
87.94	8.543
88.16	10.568
88.38	11.897
88.6	10.112
88.82	13.394
89.04	10.318
89.26	3.189
89.48	15.593
89.7	15.798
89.92	10.181
