Measurement: Powder, Xray Data XY Processed
Mineral: Chevkinite-(Ce)
Rruff sample: R060419
Ideal chemistry: Ce^3+^_4_(Ti^4+^,Fe^2+^,Fe^3+^)_5_O_8_(Si_2_O_7_)_2_
Locality: Arondu, Basha Valley, Baltistan, Pakistan
Source: Herb Obodda
Description: Black resinous fragment
Diffraction sample description: Powder
Measured chemistry: (Ce_1.89_La_0.88_Nd_0.63_Ca_0.47_Th_0.13_)_Σ=4_(Ti_2.80_Fe^2+^_1.46_Fe^3+^_0.74_)_Σ=5_O_8_(Si_2.00_O_7_)_2_
Cell parameters: a: 13.391(2) b: 5.7449(7) c: 11.066(2) alpha: 90. beta: 100.63(1) gamma: 90. volume: 836.7(2) crystal system: monoclinic
x	intensity
5	0
5.22	0.51947
5.44	3.50422
5.66	9.61875
5.88	16.0364
6.1	17.2635
6.32	18.4503
6.54	4.68827
6.76	11.2217
6.98	11.3992
7.2	8.56661
7.42	12.1088
7.64	7.58281
7.86	8.94118
8.08	1.05877
8.3	4.47772
8.52	2.94949
8.74	7.3867
8.96	2.56246
9.18	8.81962
9.4	5.94641
9.62	6.29008
9.84	8.37142
10.06	6.18844
10.28	4.18129
10.5	4.11048
10.72	1.1544
10.94	4.00129
11.16	5.9711
11.38	3.0113
11.6	10.0017
11.82	5.01076
12.04	15.0085
12.26	8.07083
12.48	0.08996
12.7	6.23066
12.92	2.23454
13.14	7.33761
13.36	0.663502
13.58	3.24881
13.8	3.28823
14.02	7.0248
14.24	15.9273
14.46	11.8089
14.68	4.46982
14.9	6.5872
15.12	1.30065
15.34	12.2458
15.56	1.0093
15.78	13.141
16	2.83779
16.22	10.3366
16.44	18.4103
16.66	0.522226
16.88	12.5613
17.1	11.6119
17.32	7.46758
17.54	8.68225
17.76	1.78154
17.98	2.83661
18.2	17.6775
18.42	0.543895
18.64	9.29684
18.86	12.3735
19.08	6.41947
19.3	21.2914
19.52	8.32773
19.74	6.62493
19.96	6.6836
20.18	2.53201
20.4	8.59481
20.62	0.107121
20.84	2.92399
21.06	2.88386
21.28	5.85668
21.5	3.88992
21.72	1.12555
21.94	3.83868
22.16	6.57543
22.38	11.4285
22.6	8.4519
22.82	12.3466
23.04	6.14878
23.26	9.56516
23.48	0.562259
23.7	8.30406
23.92	0.145427
24.14	7.22308
24.36	12.1447
24.58	16.8651
24.8	17.7443
25.02	3.71299
25.24	5.77516
25.46	7.01871
25.68	16.5194
25.9	3.41977
26.12	8.47175
26.34	11.4652
26.56	10.3655
26.78	0.875498
27	0.086557
27.22	3.2571
27.44	7.46199
27.66	5.34263
27.88	7.72661
28.1	42.671
28.32	13.8232
28.54	12.8486
28.76	6.64884
28.98	24.8559
29.2	10.9455
29.42	1.78224
29.64	1.52697
29.86	20.5892
30.08	3.43892
30.3	11.478
30.52	4.44994
30.74	7.1984
30.96	10.3196
31.18	16.158
31.4	1.84743
31.62	4.7148
31.84	1.56886
32.06	3.0859
32.28	7.89882
32.5	28.9856
32.72	7.10498
32.94	26.2661
33.16	7.43619
33.38	14.0369
33.6	2.33796
33.82	0.94652
34.04	4.23522
34.26	9.43939
34.48	14.7081
34.7	8.17368
34.92	9.23328
35.14	11.4554
35.36	21.2703
35.58	7.4884
35.8	3.60329
36.02	1.64184
36.24	4.31251
36.46	8.23157
36.68	6.3968
36.9	6.25065
37.12	6.29108
37.34	0.102859
37.56	6.09132
37.78	0.288552
38	1.1695
38.22	10.2353
38.44	6.32517
38.66	1.74576
38.88	7.82874
39.1	3.69756
39.32	2.52724
39.54	2.53772
39.76	2.58264
39.98	6.45927
40.2	8.59769
40.42	11.5225
40.64	7.27421
40.86	8.12772
41.08	8.6294
41.3	1.31398
41.52	17.7235
41.74	19.7456
41.96	3.85151
42.18	2.94374
42.4	7.81757
42.62	4.33188
42.84	9.34738
43.06	0.344675
43.28	6.65964
43.5	5.70792
43.72	7.78497
43.94	12.0664
44.16	14.9218
44.38	1.86599
44.6	3.63294
44.82	11.6173
45.04	5.58549
45.26	10.5505
45.48	5.70815
45.7	7.67771
45.92	15.8428
46.14	24.7895
46.36	14.7648
46.58	2.41999
46.8	6.69162
47.02	6.92378
47.24	1.1666
47.46	2.51076
47.68	1.14707
47.9	3.76234
48.12	4.39581
48.34	0.264336
48.56	7.5914
48.78	11.2434
49	11.8839
49.22	6.47286
49.44	0.60318
49.66	4.15524
49.88	11.7633
50.1	5.34582
50.32	2.29582
50.54	2.41089
50.76	0.057056
50.98	12.0555
51.2	10.7778
51.42	7.84194
51.64	6.81695
51.86	2.64853
52.08	4.99625
52.3	11.474
52.52	16.5339
52.74	17.1549
52.96	3.43026
53.18	6.47377
53.4	13.6029
53.62	8.44154
53.84	4.34539
54.06	9.30542
54.28	6.26251
54.5	11.8198
54.72	16.7904
54.94	7.836
55.16	5.67478
55.38	10.5932
55.6	2.51115
55.82	3.67904
56.04	1.91206
56.26	13.1951
56.48	5.48182
56.7	10.0634
56.92	3.18189
57.14	5.96004
57.36	4.00158
57.58	5.9391
57.8	5.19888
58.02	9.15372
58.24	0.317442
58.46	2.16185
58.68	2.96809
58.9	3.91757
59.12	6.48671
59.34	1.40521
59.56	12.7619
59.78	9.8555
60	10.8388
60.22	0.577064
60.44	3.98788
60.66	8.68825
60.88	3.6741
61.1	10.7667
61.32	1.82478
61.54	4.79915
61.76	9.76476
61.98	9.47114
62.2	8.34528
62.42	0.700365
62.64	3.7466
62.86	11.532
63.08	9.54831
63.3	3.64106
63.52	3.74164
63.74	6.71386
63.96	3.77267
64.18	4.74783
64.4	0.599512
64.62	12.6245
64.84	8.39594
65.06	9.27205
65.28	6.21173
65.5	7.23405
65.72	0.540968
65.94	6.19955
66.16	5.90505
66.38	1.0303
66.6	0.830927
66.82	5.19658
67.04	5.04224
67.26	0.330843
67.48	8.4707
67.7	6.59716
67.92	5.50684
68.14	6.22299
68.36	0.233394
68.58	7.20048
68.8	1.48097
69.02	9.41556
69.24	8.39026
69.46	5.32793
69.68	7.99266
69.9	8.3265
70.12	2.27302
70.34	10.3532
70.56	1.58064
70.78	4.50533
71	2.67812
71.22	6.73479
71.44	2.05419
71.66	10.1222
71.88	3.07036
72.1	3.05309
72.32	4.78509
72.54	3.98504
72.76	5.8651
72.98	8.82518
73.2	7.025
73.42	6.69652
73.64	4.32058
73.86	3.94668
74.08	3.86686
74.3	5.89838
74.52	3.30955
74.74	12.2047
74.96	2.93688
75.18	0.017825
75.4	2.90219
75.62	7.86922
75.84	6.92235
76.06	7.34746
76.28	14.4807
76.5	5.8543
76.72	3.67923
76.94	1.86735
77.16	8.06803
77.38	6.39632
77.6	9.48735
77.82	15.4867
78.04	1.60666
78.26	16.3258
78.48	2.88773
78.7	5.99156
78.92	7.58628
79.14	4.36557
79.36	12.3574
79.58	5.17498
79.8	2.80778
80.02	7.64633
80.24	3.74838
80.46	8.68694
80.68	7.97056
80.9	12.2748
81.12	10.0688
81.34	7.13006
81.56	3.23365
81.78	2.01815
82	1.26938
82.22	6.43218
82.44	11.5346
82.66	3.51472
82.88	9.58658
83.1	5.60966
83.32	11.4539
83.54	0.239523
83.76	3.80418
83.98	2.8
84.2	7.74292
84.42	7.5073
84.64	9.34476
84.86	0.789219
85.08	6.06957
85.3	1.96275
85.52	14.6859
85.74	3.78622
85.96	8.71127
86.18	1.59581
86.4	1.50025
86.62	8.54869
86.84	4.53461
87.06	6.58425
87.28	3.66434
87.5	4.84112
87.72	7.0704
87.94	4.10358
88.16	0.043671
88.38	5.83234
88.6	7.92204
88.82	8.12969
89.04	6.00846
89.26	13.2304
89.48	1.89059
89.7	6.85394
89.92	8.06612
