Measurement: Powder, Xray Data XY Processed
Mineral: Chiolite
Rruff sample: R050412
Ideal chemistry: Na_5_Al_3_F_14_
Locality: Ivigtut cryolite deposit, Arsuk Fjord, Greenland
Source: G.R. Rossman
Description: Colorless fragment
Diffraction sample description: Powder
Measured chemistry: (Na_4.96_K_0.04_)_Î£=5_Al_3.00_F_14.00_ ; trace amounts of Si and Ca
Cell parameters: a: 7.0161(3) b: 7.0161(3) c: 10.4011(6) alpha: 90. beta: 90. gamma: 90. volume: 512.00(5) crystal system: tetragonal
x	intensity
5	0
5.22	2.966
5.44	16.311
5.66	19.678
5.88	6.958
6.1	8.728
6.32	18.587
6.54	7.279
6.76	12.942
6.98	8.779
7.2	9.66
7.42	2.189
7.64	1.166
7.86	10.841
8.08	5.456
8.3	1.473
8.52	8.513
8.74	1.03
8.96	3.44
9.18	5.387
9.4	14.603
9.62	5.639
9.84	7.786
10.06	11.665
10.28	3.03
10.5	1.149
10.72	2.796
10.94	13.192
11.16	3.109
11.38	4.058
11.6	6.15
11.82	5.344
12.04	2.687
12.26	8.807
12.48	2.838
12.7	5.628
12.92	7.745
13.14	7.275
13.36	0.165
13.58	0.845
13.8	3.822
14.02	5.606
14.24	1.362
14.46	4.963
14.68	0.658
14.9	11.703
15.12	48.559
15.34	45.285
15.56	9.414
15.78	2.88
16	1.647
16.22	2.229
16.44	5.852
16.66	17.572
16.88	20.256
17.1	248.469
17.32	16.704
17.54	17.876
17.76	8.671
17.98	26.201
18.2	7.82
18.42	11.584
18.64	7.098
18.86	2.591
19.08	14.011
19.3	3.544
19.52	10.768
19.74	9.466
19.96	10.677
20.18	4.007
20.4	1.015
20.62	9.996
20.84	4.098
21.06	7.373
21.28	6.456
21.5	0.767
21.72	12.65
21.94	1.149
22.16	14.012
22.38	5.332
22.6	1.523
22.82	12.278
23.04	1.064
23.26	12.534
23.48	8.369
23.7	5.929
23.92	0.326
24.14	4.92
24.36	10.432
24.58	2.854
24.8	38.503
25.02	5.258
25.24	19.134
25.46	65.016
25.68	12.951
25.9	4.738
26.12	9.081
26.34	2.316
26.56	7.316
26.78	2.391
27	3.364
27.22	1.762
27.44	2.256
27.66	15.85
27.88	2.736
28.1	8.588
28.32	1.019
28.54	3.989
28.76	16.988
28.98	5.13
29.2	7.158
29.42	9.242
29.64	21.739
29.86	53.314
30.08	14.014
30.3	19.628
30.52	65.86
30.74	529.831
30.96	79.141
31.18	7.164
31.4	1.918
31.62	7.205
31.84	6.427
32.06	0.583
32.28	2.182
32.5	11.073
32.72	8.741
32.94	8.68
33.16	5.64
33.38	6.257
33.6	0.316
33.82	0.716
34.04	5.812
34.26	9.791
34.48	65.008
34.7	11.136
34.92	10.029
35.14	4.618
35.36	4.547
35.58	0.717
35.8	0.271
36.02	15.456
36.24	32.113
36.46	13.239
36.68	0.817
36.9	6.03
37.12	5.48
37.34	3.795
37.56	8.063
37.78	4.304
38	17.748
38.22	13.86
38.44	27.739
38.66	207.181
38.88	94.849
39.1	30.13
39.32	9.23
39.54	29.997
39.76	0.931
39.98	4.794
40.2	15.852
40.42	27.067
40.64	48.451
40.86	6.937
41.08	1.652
41.3	0.223
41.52	45.254
41.74	59.101
41.96	18.848
42.18	9.533
42.4	3.669
42.62	3.598
42.84	6.7
43.06	4.295
43.28	0.432
43.5	3.318
43.72	1.701
43.94	5.416
44.16	2.916
44.38	2.354
44.6	10.787
44.82	0.397
45.04	16.864
45.26	99.886
45.48	74.353
45.7	19.282
45.92	11.324
46.14	1.684
46.36	13.104
46.58	19.596
46.8	38.518
47.02	14.223
47.24	5.599
47.46	4.836
47.68	0.61
47.9	8.085
48.12	8.469
48.34	2.617
48.56	5.656
48.78	3.87
49	8.879
49.22	1.228
49.44	4.437
49.66	12.866
49.88	9.175
50.1	11.405
50.32	9.45
50.54	16.308
50.76	52.663
50.98	84.702
51.2	23.907
51.42	14.447
51.64	2.255
51.86	4.264
52.08	71.678
52.3	54.96
52.52	8.015
52.74	22.135
52.96	17.397
53.18	5.006
53.4	4.511
53.62	4.838
53.84	6.316
54.06	6.874
54.28	15.93
54.5	13.868
54.72	20.316
54.94	3.381
55.16	1.749
55.38	9.203
55.6	7.326
55.82	6.552
56.04	2.853
56.26	7.949
56.48	10.066
56.7	5.624
56.92	19.144
57.14	9.427
57.36	7.604
57.58	11.496
57.8	0.169
58.02	6.137
58.24	2.06
58.46	5.966
58.68	0.188
58.9	18.539
59.12	16.299
59.34	46.514
59.56	74.436
59.78	15.966
60	11.031
60.22	16.179
60.44	6.197
60.66	1.192
60.88	0.789
61.1	5.304
61.32	13.406
61.54	17.35
61.76	72.213
61.98	34.678
62.2	8.136
62.42	7.073
62.64	0.722
62.86	2.494
63.08	8.735
63.3	0.921
63.52	9.083
63.74	4.492
63.96	25.573
64.18	16.861
64.4	10.486
64.62	2.525
64.84	0.294
65.06	1.945
65.28	0.762
65.5	6.349
65.72	7.586
65.94	1.717
66.16	7.591
66.38	10.538
66.6	4.612
66.82	4.884
67.04	12.715
67.26	15.899
67.48	0.379
67.7	4.494
67.92	2.367
68.14	9.09
68.36	1.908
68.58	9.723
68.8	6.432
69.02	9.119
69.24	1.988
69.46	1.022
69.68	5.883
69.9	7.796
70.12	9.277
70.34	5.78
70.56	3.346
70.78	8.671
71	5.959
71.22	4.18
71.44	6.252
71.66	11.284
71.88	8.224
72.1	6.975
72.32	12.352
72.54	2.073
72.76	17.203
72.98	14.143
73.2	15.169
73.42	5.218
73.64	7.52
73.86	3.662
74.08	5.029
74.3	4.304
74.52	4.388
74.74	4.415
74.96	1.322
75.18	9.003
75.4	3.143
75.62	6.712
75.84	12.459
76.06	4.217
76.28	5.99
76.5	11.793
76.72	0.246
76.94	9.98
77.16	8.109
77.38	4.331
77.6	6.346
77.82	0.686
78.04	3.51
78.26	0.277
78.48	1.879
78.7	2.187
78.92	2.373
79.14	8.473
79.36	0.417
79.58	7.472
79.8	6.155
80.02	2.323
80.24	5.481
80.46	7.786
80.68	1.186
80.9	5.796
81.12	3.573
81.34	8.406
81.56	5.095
81.78	3.847
82	3.45
82.22	7.671
82.44	5.9
82.66	5.452
82.88	23.399
83.1	23.263
83.32	13.24
83.54	2.684
83.76	4.594
83.98	2.728
84.2	9.206
84.42	18.551
84.64	0.772
84.86	3.516
85.08	5.83
85.3	4.979
85.52	2.118
85.74	6.095
85.96	7.996
86.18	5.792
86.4	6.806
86.62	4.483
86.84	5.17
87.06	0.047
87.28	12.911
87.5	6.693
87.72	5.592
87.94	5.6
88.16	12.042
88.38	5.292
88.6	3.539
88.82	0.627
89.04	3.096
89.26	0.655
89.48	8.202
89.7	10.034
89.92	10.117
