Measurement: Powder, Xray Data XY Processed
Mineral: Chkalovite
Rruff sample: R060682
Ideal chemistry: Na_2_BeSi_2_O_6_
Locality: Khibiny Massif, Kola Peninsula, Murmanskaja Oblast', Northern Region, Russia
Source: Michael Scott
Description: Colorless coarse granular mass
Diffraction sample description: Powder
Measured chemistry: Na_2.00_Be_1.00_Si_2.00_O_6_; Be estimated by difference and stoichiometry
Cell parameters: a: 21.107(1) b: 6.8745(2) c: 21.156(1) alpha: 90 beta: 90 gamma: 90 volume: 3069.7(0) crystal system: orthorhombic
x	intensity
5	0
5.22	17.0845
5.44	0.073291
5.66	16.6943
5.88	5.97451
6.1	1.12164
6.32	8.37261
6.54	9.68387
6.76	4.40649
6.98	2.82657
7.2	1.83458
7.42	8.34682
7.64	3.73341
7.86	7.16507
8.08	13.2746
8.3	5.57518
8.52	2.84483
8.74	0.180247
8.96	5.58915
9.18	11.9252
9.4	2.02462
9.62	5.18344
9.84	0.694987
10.06	8.81019
10.28	1.0558
10.5	1.26352
10.72	8.48856
10.94	3.30004
11.16	8.23435
11.38	1.96352
11.6	5.68196
11.82	7.60046
12.04	8.17017
12.26	15.8118
12.48	3.54371
12.7	9.14621
12.92	0.383265
13.14	6.32799
13.36	5.11121
13.58	1.00124
13.8	3.81235
14.02	1.2761
14.24	6.59624
14.46	4.60789
14.68	5.31772
14.9	1.26866
15.12	1.10029
15.34	7.07561
15.56	5.90792
15.78	0.674451
16	15.4351
16.22	16.3146
16.44	11.1255
16.66	13.9437
16.88	14.6359
17.1	0.548379
17.32	4.74248
17.54	1.28603
17.76	0.345833
17.98	5.42889
18.2	23.7185
18.42	6.09353
18.64	3.04
18.86	3.10529
19.08	12.2623
19.3	6.53972
19.52	6.20844
19.74	4.90481
19.96	9.17914
20.18	11.4012
20.4	8.24935
20.62	0.117294
20.84	10.313
21.06	2.9953
21.28	5.76843
21.5	8.37211
21.72	4.99574
21.94	34.7728
22.16	82.5643
22.38	16.5016
22.6	3.31583
22.82	5.47015
23.04	8.00164
23.26	4.59924
23.48	11.1236
23.7	8.73124
23.92	16.9425
24.14	3.96932
24.36	9.92096
24.58	6.81066
24.8	8.44028
25.02	17.285
25.24	9.18631
25.46	5.44177
25.68	5.75292
25.9	13.8678
26.12	14.8337
26.34	8.25804
26.56	14.207
26.78	147.365
27	16.8785
27.22	17.6926
27.44	29.2969
27.66	3.22882
27.88	11.8216
28.1	3.94157
28.32	3.31858
28.54	7.60733
28.76	4.63812
28.98	14.4955
29.2	4.91802
29.42	5.81124
29.64	9.88761
29.86	11.4912
30.08	7.64455
30.3	17.1682
30.52	3.67896
30.74	5.68426
30.96	1.14285
31.18	24.6754
31.4	10.9418
31.62	3.23228
31.84	8.32653
32.06	21.0499
32.28	204.349
32.5	12.8646
32.72	46.416
32.94	15.7218
33.16	10.0395
33.38	13.9139
33.6	8.93829
33.82	10.2504
34.04	5.87401
34.26	9.99774
34.48	12.143
34.7	15.1514
34.92	39.8018
35.14	8.4826
35.36	11.3294
35.58	3.17469
35.8	4.00799
36.02	90.4391
36.24	26.6477
36.46	36.6333
36.68	38.5863
36.9	1.00156
37.12	1.39689
37.34	4.10166
37.56	34.5243
37.78	1.13509
38	11.5626
38.22	1.66333
38.44	14.1675
38.66	7.47443
38.88	7.86718
39.1	12.8896
39.32	6.34802
39.54	0.885098
39.76	6.76309
39.98	8.58596
40.2	3.38919
40.42	29.3738
40.64	4.23202
40.86	6.04235
41.08	6.79658
41.3	3.83127
41.52	11.9467
41.74	1.11769
41.96	6.91606
42.18	13.8562
42.4	10.7556
42.62	8.72758
42.84	16.4978
43.06	7.29767
43.28	8.87302
43.5	26.951
43.72	14.7433
43.94	5.5704
44.16	46.3769
44.38	2.7167
44.6	0.833439
44.82	9.72838
45.04	23.8942
45.26	17.1931
45.48	15.6494
45.7	4.80855
45.92	1.99429
46.14	17.2629
46.36	12.8314
46.58	5.93558
46.8	15.2476
47.02	9.33385
47.24	5.37542
47.46	7.00602
47.68	0.60422
47.9	5.60151
48.12	1.75048
48.34	1.22592
48.56	0.990612
48.78	9.38613
49	10.7098
49.22	6.45674
49.44	14.2828
49.66	21.0407
49.88	0.395182
50.1	14.337
50.32	12.2646
50.54	10.62
50.76	26.7216
50.98	14.7243
51.2	14.1667
51.42	14.8161
51.64	6.09237
51.86	18.7764
52.08	14.9778
52.3	10.1853
52.52	6.31082
52.74	5.31391
52.96	4.9036
53.18	16.8725
53.4	18.9412
53.62	1.14887
53.84	41.6947
54.06	8.61507
54.28	16.4187
54.5	5.07698
54.72	13.3359
54.94	20.3321
55.16	8.62645
55.38	3.85281
55.6	4.67872
55.82	4.13438
56.04	6.9792
56.26	11.0224
56.48	5.92876
56.7	9.76389
56.92	0.540138
57.14	9.22339
57.36	12.3103
57.58	10.5724
57.8	7.44763
58.02	1.56481
58.24	0.622334
58.46	7.78628
58.68	4.87759
58.9	2.98302
59.12	9.35574
59.34	8.30194
59.56	16.453
59.78	6.69008
60	11.5883
60.22	1.59423
60.44	3.13115
60.66	6.21513
60.88	5.41077
61.1	3.52696
61.32	3.49422
61.54	6.1944
61.76	6.21614
61.98	6.69561
62.2	7.52928
62.42	75.2934
62.64	17.2838
62.86	3.99469
63.08	8.84103
63.3	14.7115
63.52	10.8005
63.74	3.79894
63.96	5.79296
64.18	3.73075
64.4	10.2966
64.62	12.2287
64.84	19.4746
65.06	32.2965
65.28	37.1653
65.5	4.38609
65.72	5.63533
65.94	4.64945
66.16	15.8038
66.38	3.80404
66.6	9.87368
66.82	3.87851
67.04	5.00007
67.26	6.79114
67.48	17.9919
67.7	27.4237
67.92	14.8567
68.14	0.201207
68.36	0.60548
68.58	9.75547
68.8	9.81488
69.02	12.0019
69.24	1.84849
69.46	8.65821
69.68	5.38145
69.9	0.224874
70.12	8.57725
70.34	20.0554
70.56	14.0654
70.78	3.09925
71	0.917712
71.22	8.45025
71.44	11.5552
71.66	4.18705
71.88	4.78218
72.1	2.09434
72.32	5.23955
72.54	9.51921
72.76	10.9244
72.98	3.00177
73.2	10.2687
73.42	0.628134
73.64	5.03024
73.86	0.095482
74.08	4.80568
74.3	5.57906
74.52	2.57611
74.74	7.61651
74.96	4.93755
75.18	6.79796
75.4	2.87384
75.62	8.26098
75.84	10.1693
76.06	10.3523
76.28	1.32132
76.5	6.11056
76.72	9.997
76.94	6.86525
77.16	0.601248
77.38	8.32705
77.6	6.14558
77.82	16.6433
78.04	6.81822
78.26	12.7822
78.48	6.61691
78.7	3.75715
78.92	3.00174
79.14	7.29562
79.36	7.84455
79.58	3.92259
79.8	5.81918
80.02	1.18628
80.24	1.84867
80.46	9.62364
80.68	10.5425
80.9	0.734346
81.12	2.56791
81.34	3.44795
81.56	5.31714
81.78	5.96573
82	8.15314
82.22	7.42126
82.44	2.52899
82.66	4.56193
82.88	5.6013
83.1	9.01408
83.32	8.81173
83.54	7.81319
83.76	4.72639
83.98	9.04349
84.2	2.24575
84.42	5.7062
84.64	8.49275
84.86	2.36831
85.08	5.44139
85.3	5.67318
85.52	4.52798
85.74	6.89347
85.96	7.95799
86.18	3.90356
86.4	7.93795
86.62	3.01222
86.84	16.0834
87.06	4.17178
87.28	8.27131
87.5	24.3992
87.72	22.2983
87.94	15.114
88.16	8.30021
88.38	11.4445
88.6	5.85941
88.82	5.43996
89.04	11.7358
89.26	9.88587
89.48	5.04426
89.7	11.5411
89.92	0.170807
