Measurement: Powder, Xray Data XY Processed
Mineral: Chlorapatite
Rruff sample: R060192
Ideal chemistry: Ca_5_(PO_4_)_3_Cl
Locality: Parelhas, Rio Grande de Norte, Brazil
Source: Luiz Menezes
Description: Colorless to gray fine-grained parallel aggregates
Diffraction sample description: Powder
Measured chemistry: (Ca_4.97_Mn_0.03_)_Σ=5_(P_1.00_O_4_)_3_(Cl_0.69_(OH)_0.29_F_0.02_)_Σ=1_ ; trace amounts of Sr ; (OH) estimated by difference and stoichiometry
Cell parameters: a: 9.4677(5) b: 18.947(2) c: 6.8328(4) alpha: 90 beta: 90 gamma: 120.059(4) volume: 1060.83(7) crystal system: monoclinic
x	intensity
5	0
5.22	10.916
5.44	1.445
5.66	11.186
5.88	10.084
6.1	12.618
6.32	10.366
6.54	10.256
6.76	25.375
6.98	11.561
7.2	15.13
7.42	10.364
7.64	0.994
7.86	5.742
8.08	7.478
8.3	2.426
8.52	11.515
8.74	17.776
8.96	10.325
9.18	10.734
9.4	4.203
9.62	13.37
9.84	9.006
10.06	0.978
10.28	14.188
10.5	7.384
10.72	13.407
10.94	10.417
11.16	5.48
11.38	9.043
11.6	11.312
11.82	9.606
12.04	4.27
12.26	6.276
12.48	5.619
12.7	12.73
12.92	0.293
13.14	7.53
13.36	8.744
13.58	3.721
13.8	10.74
14.02	14.1
14.24	1.565
14.46	6.794
14.68	10.172
14.9	6.621
15.12	6.87
15.34	5.895
15.56	0.653
15.78	6.461
16	2.714
16.22	0.981
16.44	8.223
16.66	3.09
16.88	3.266
17.1	8.703
17.32	0.237
17.54	10.592
17.76	5.097
17.98	3.293
18.2	8.742
18.42	5.168
18.64	3.79
18.86	1.341
19.08	9.587
19.3	4.807
19.52	7.722
19.74	4.629
19.96	4.781
20.18	2.76
20.4	3.908
20.62	5.855
20.84	5.765
21.06	4.62
21.28	0.524
21.5	0.628
21.72	10.611
21.94	10.635
22.16	7.808
22.38	0.771
22.6	1.878
22.82	4.883
23.04	5.016
23.26	0.079
23.48	1.989
23.7	3.183
23.92	1.3
24.14	5.492
24.36	2.488
24.58	1.347
24.8	7.225
25.02	1.785
25.24	6.071
25.46	4.964
25.68	11.872
25.9	6.1
26.12	9.17
26.34	21.999
26.56	8.765
26.78	6.674
27	3.633
27.22	0.504
27.44	4.36
27.66	5.254
27.88	3.166
28.1	0.154
28.32	0.805
28.54	16.787
28.76	8.879
28.98	14.071
29.2	5.273
29.42	0.594
29.64	1.625
29.86	0.908
30.08	1.13
30.3	1.053
30.52	1.578
30.74	3.286
30.96	7.784
31.18	0.209
31.4	3.806
31.62	13.36
31.84	82.983
32.06	12.616
32.28	14.32
32.5	36.382
32.72	38.954
32.94	24.335
33.16	23.607
33.38	6.965
33.6	1.535
33.82	2.931
34.04	5.364
34.26	27.644
34.48	7.914
34.7	11.987
34.92	2.016
35.14	6.8
35.36	12.768
35.58	2.021
35.8	8.199
36.02	5.48
36.24	3.665
36.46	7.69
36.68	4.88
36.9	4.033
37.12	7.088
37.34	3.129
37.56	0.132
37.78	8.121
38	2.966
38.22	4.757
38.44	1.307
38.66	0.021
38.88	5.819
39.1	0.604
39.32	10.584
39.54	7.475
39.76	10.446
39.98	9.85
40.2	3.912
40.42	2.971
40.64	5.161
40.86	1.298
41.08	1.429
41.3	6.554
41.52	0.311
41.74	0.373
41.96	5.873
42.18	7.855
42.4	3.561
42.62	3.782
42.84	3.875
43.06	1.862
43.28	3.879
43.5	7.877
43.72	1.146
43.94	1.124
44.16	8.049
44.38	7.894
44.6	6.796
44.82	2.832
45.04	3.556
45.26	4.408
45.48	5.318
45.7	9.263
45.92	5.214
46.14	5.131
46.36	4.106
46.58	1.363
46.8	27.62
47.02	12.699
47.24	2.569
47.46	5.641
47.68	11.789
47.9	2.996
48.12	13.174
48.34	13.181
48.56	5.921
48.78	1.467
49	0.058
49.22	2.514
49.44	5.157
49.66	18.945
49.88	17.519
50.1	5.095
50.32	3.678
50.54	6.393
50.76	2.468
50.98	9.5
51.2	8.598
51.42	8.771
51.64	5.142
51.86	1.825
52.08	10.995
52.3	7.316
52.52	3.692
52.74	1.979
52.96	2.944
53.18	1.267
53.4	4.567
53.62	13.966
53.84	6.067
54.06	9.169
54.28	4.87
54.5	3.965
54.72	0.985
54.94	3.974
55.16	0.961
55.38	7.024
55.6	3.254
55.82	13.04
56.04	5.949
56.26	2.928
56.48	4.792
56.7	2.16
56.92	6.797
57.14	3.795
57.36	12.788
57.58	1.862
57.8	0.809
58.02	0.331
58.24	0.857
58.46	6.923
58.68	1.945
58.9	1.943
59.12	5.868
59.34	1.065
59.56	5.022
59.78	4.117
60	6.083
60.22	7.037
60.44	4.108
60.66	0.121
60.88	2.847
61.1	3.928
61.32	5.859
61.54	8.832
61.76	6.777
61.98	1.373
62.2	4.424
62.42	3.535
62.64	1.715
62.86	8.639
63.08	1.566
63.3	6.466
63.52	2.319
63.74	8.325
63.96	1.219
64.18	9.202
64.4	9.424
64.62	15.592
64.84	5.526
65.06	5.392
65.28	9.289
65.5	2.472
65.72	1.629
65.94	6.728
66.16	7.022
66.38	4.279
66.6	1.457
66.82	8.346
67.04	4.322
67.26	0.615
67.48	5.562
67.7	7.763
67.92	0.252
68.14	3.792
68.36	12.841
68.58	0.351
68.8	6.493
69.02	0.395
69.24	5.336
69.46	5.38
69.68	1.396
69.9	4.257
70.12	3.989
70.34	1.882
70.56	5.792
70.78	2.678
71	5.618
71.22	4.626
71.44	1.824
71.66	2.888
71.88	7.747
72.1	1.638
72.32	3.629
72.54	0.697
72.76	4.735
72.98	5.759
73.2	2.987
73.42	7.46
73.64	2.499
73.86	2.307
74.08	5.334
74.3	7.322
74.52	8.287
74.74	3.117
74.96	1.973
75.18	1.082
75.4	2.792
75.62	8.602
75.84	5.095
76.06	2.86
76.28	5.696
76.5	14.376
76.72	7.268
76.94	4.192
77.16	9.428
77.38	17.479
77.6	0.532
77.82	3.517
78.04	2.763
78.26	5.144
78.48	9.397
78.7	1.647
78.92	2.936
79.14	1.276
79.36	4.505
79.58	3.498
79.8	2.573
80.02	2.573
80.24	4.597
80.46	3.357
80.68	1.163
80.9	3.138
81.12	10.091
81.34	0.26
81.56	3.184
81.78	1.134
82	2.116
82.22	6.081
82.44	7.027
82.66	3.945
82.88	4.063
83.1	0.926
83.32	8.847
83.54	2.653
83.76	2.464
83.98	2.277
84.2	1.343
84.42	8.398
84.64	2.386
84.86	1.572
85.08	2.564
85.3	2.497
85.52	3.562
85.74	4.713
85.96	6.892
86.18	2.956
86.4	0.862
86.62	1.633
86.84	1.543
87.06	1.487
87.28	3.389
87.5	8.163
87.72	4.069
87.94	13.021
88.16	4.951
88.38	4.879
88.6	8.874
88.82	2.085
89.04	5.198
89.26	4.471
89.48	5.912
89.7	1.195
89.92	6.889
