Measurement: Powder, Xray Data XY Processed
Mineral: Chrysoberyl
Rruff sample: R040073
Ideal chemistry: BeAl_2_O_4_
Locality: Brazil
Source: University of Arizona Mineral Museum
Description: Pair of green prismatic crystals
Diffraction sample description: Powder
Measured chemistry: (Be_0.89_Al_0.06_Fe_0.02_)Al_2.00_O_4_
Cell parameters: a: 4.4286(1) b: 9.4095(3) c: 5.4789(1) alpha: 90. beta: 90. gamma: 90. volume: 228.314(7) crystal system: orthorhombic
x	intensity
5	0
5.22	6.941
5.44	1.071
5.66	6.949
5.88	12.635
6.1	13.601
6.32	2.136
6.54	10.595
6.76	2.772
6.98	5.938
7.2	9.629
7.42	7.532
7.64	0.048
7.86	15.536
8.08	0.032
8.3	12.065
8.52	10.084
8.74	9.043
8.96	2.71
9.18	8.487
9.4	13.705
9.62	12.535
9.84	5.717
10.06	4.41
10.28	15.037
10.5	6.039
10.72	2.524
10.94	6.798
11.16	5.899
11.38	2.914
11.6	14.427
11.82	5.399
12.04	10.09
12.26	8.871
12.48	11.179
12.7	14.12
12.92	7.271
13.14	3.391
13.36	4.452
13.58	9.716
13.8	1.797
14.02	2.975
14.24	6.544
14.46	6.772
14.68	3.778
14.9	2.947
15.12	3.069
15.34	0.904
15.56	7.211
15.78	3.466
16	21.469
16.22	14.916
16.44	1.014
16.66	3.073
16.88	3.076
17.1	8.341
17.32	7.459
17.54	7.456
17.76	21.247
17.98	12.209
18.2	7.561
18.42	15.896
18.64	4.722
18.86	53.632
19.08	15.447
19.3	12.313
19.52	6.991
19.74	11.009
19.96	2.474
20.18	1.613
20.4	2.776
20.62	6.343
20.84	14.04
21.06	13.037
21.28	8.979
21.5	5.839
21.72	15.82
21.94	20.817
22.16	163.381
22.38	37.989
22.6	7.885
22.82	3.272
23.04	3.064
23.26	0.123
23.48	9.05
23.7	14.852
23.92	3.731
24.14	8.947
24.36	6.56
24.58	12.94
24.8	0.622
25.02	19.502
25.24	9.798
25.46	4.185
25.68	24.651
25.9	26.389
26.12	8.474
26.34	3.197
26.56	8.987
26.78	6.79
27	14.614
27.22	18.632
27.44	46.705
27.66	433.211
27.88	11.422
28.1	1.798
28.32	1.191
28.54	1.644
28.76	0.807
28.98	15.807
29.2	15.452
29.42	7.848
29.64	6.398
29.86	13.31
30.08	5.072
30.3	4.445
30.52	1.73
30.74	3.493
30.96	5.612
31.18	6.465
31.4	0.414
31.62	15.126
31.84	6.022
32.06	2.011
32.28	8.137
32.5	3.812
32.72	19.212
32.94	4.572
33.16	4.047
33.38	7.83
33.6	5.318
33.82	11.666
34.04	9.17
34.26	13.731
34.48	3.154
34.7	9.443
34.92	31.422
35.14	245.924
35.36	15.04
35.58	9.436
35.8	2.848
36.02	7.489
36.24	4.66
36.46	5.108
36.68	10.102
36.9	10.918
37.12	3.613
37.34	3.382
37.56	10.65
37.78	6.048
38	40.094
38.22	16.069
38.44	12.687
38.66	14.345
38.88	230.724
39.1	19.65
39.32	4.019
39.54	6.476
39.76	47.499
39.98	279.852
40.2	15.291
40.42	13.033
40.64	0.784
40.86	8.34
41.08	4.786
41.3	0.151
41.52	9.749
41.74	14.225
41.96	23.535
42.18	0.294
42.4	10.638
42.62	5.309
42.84	3.705
43.06	27.335
43.28	145.201
43.5	321.2
43.72	295.651
43.94	17.799
44.16	5.376
44.38	10.255
44.6	6.295
44.82	9.023
45.04	14.967
45.26	23.612
45.48	5.559
45.7	5.923
45.92	3.034
46.14	0.849
46.36	21.012
46.58	16.369
46.8	12.278
47.02	13.257
47.24	3.092
47.46	1.672
47.68	4.587
47.9	5.235
48.12	7.177
48.34	3.263
48.56	13.13
48.78	21.74
49	3.712
49.22	16.851
49.44	6.863
49.66	6.053
49.88	15.23
50.1	0.332
50.32	10.816
50.54	18.914
50.76	17.803
50.98	12.682
51.2	20.317
51.42	4.042
51.64	9.113
51.86	12.057
52.08	11.282
52.3	12.712
52.52	7.657
52.74	5.754
52.96	6.972
53.18	6.976
53.4	11.948
53.62	4.793
53.84	3.887
54.06	0.386
54.28	8.946
54.5	10.244
54.72	12.26
54.94	3.234
55.16	5.462
55.38	33.923
55.6	22.26
55.82	33.219
56.04	7.545
56.26	0.962
56.48	8.686
56.7	32.837
56.92	476.85
57.14	739.047
57.36	76.183
57.58	9.06
57.8	7.61
58.02	20.338
58.24	9.393
58.46	6.035
58.68	2.641
58.9	1.837
59.12	6.388
59.34	0.08
59.56	17.336
59.78	116.286
60	19.809
60.22	6.33
60.44	8.097
60.66	0.618
60.88	9.597
61.1	5.742
61.32	12.482
61.54	43.117
61.76	2.372
61.98	0.101
62.2	1.556
62.42	21.238
62.64	38.025
62.86	9.997
63.08	5.875
63.3	19.441
63.52	139.189
63.74	112.46
63.96	15.138
64.18	1.029
64.4	4.5
64.62	28.089
64.84	5.487
65.06	3.802
65.28	9.98
65.5	1.497
65.72	17.284
65.94	5.687
66.16	15.543
66.38	13.67
66.6	4.849
66.82	8.603
67.04	6.08
67.26	7.598
67.48	15.107
67.7	16.712
67.92	2.856
68.14	6.343
68.36	27.672
68.58	32.734
68.8	20.787
69.02	166.195
69.24	60.251
69.46	11.375
69.68	2.847
69.9	4.917
70.12	1.408
70.34	12.14
70.56	4.005
70.78	9.619
71	3.288
71.22	1.82
71.44	8.858
71.66	18.842
71.88	2.848
72.1	8.814
72.32	10.187
72.54	3.982
72.76	11.636
72.98	57.336
73.2	29.62
73.42	15.752
73.64	67.665
73.86	31.909
74.08	11.028
74.3	5.561
74.52	9.671
74.74	4.697
74.96	10.729
75.18	5.746
75.4	2.831
75.62	17.542
75.84	15.623
76.06	31.798
76.28	15.559
76.5	6.557
76.72	1.232
76.94	2.537
77.16	3.201
77.38	6.177
77.6	3.315
77.82	8.543
78.04	10.641
78.26	5.728
78.48	10.414
78.7	6.275
78.92	10.601
79.14	7.603
79.36	31.299
79.58	28.163
79.8	8.922
80.02	4.922
80.24	5.837
80.46	12.062
80.68	7.24
80.9	11.751
81.12	5.199
81.34	0.211
81.56	10.492
81.78	7.821
82	4.026
82.22	1.29
82.44	5.16
82.66	4.141
82.88	11.016
83.1	12.844
83.32	0.449
83.54	0.121
83.76	2.661
83.98	13.34
84.2	2.056
84.42	6.785
84.64	9.68
84.86	5.664
85.08	5.899
85.3	14.018
85.52	5.984
85.74	4.978
85.96	5.564
86.18	6.953
86.4	1.292
86.62	2.515
86.84	6.711
87.06	0.31
87.28	6.791
87.5	5.695
87.72	4.6
87.94	18.82
88.16	32.067
88.38	15.922
88.6	6.994
88.82	6.247
89.04	3.487
89.26	8.955
89.48	0.659
89.7	10.781
89.92	13.166
