Measurement: Powder, Xray Data XY Processed
Mineral: Chrysocolla
Rruff sample: R060547
Ideal chemistry: (Cu^2+^_2-x_Al_x_)H_2-x_Si_2_O_5_(OH)_4_nH_2_O
Locality: unknown
Source: Gemological Institute of America
Description: Blue cryptocrystalline mass
Diffraction sample description: Powder
Measured chemistry: (Cu_1.60_Al_0.20_[box]_0.10_Ca_0.06_Mg_0.04_)_Σ=2_H_2.00_Si_2.00_O_5_(OH)_4_·1.17H_2_O ; H not measured but estimated by charge balance.
x	intensity
5	0
5.22	48.338
5.44	5.621
5.66	32.52
5.88	35.584
6.1	28.057
6.32	9.172
6.54	0.606
6.76	14.064
6.98	35.571
7.2	29.058
7.42	9.701
7.64	21.078
7.86	15.97
8.08	17.255
8.3	0.375
8.52	22.357
8.74	23.423
8.96	12.613
9.18	16.808
9.4	12.065
9.62	10.559
9.84	14.692
10.06	8.329
10.28	3.024
10.5	8.021
10.72	2.915
10.94	2.834
11.16	16.041
11.38	11.268
11.6	19.74
11.82	5.978
12.04	2.684
12.26	23.893
12.48	6.053
12.7	21.243
12.92	34.194
13.14	8.309
13.36	23.199
13.58	11.182
13.8	15.994
14.02	4.562
14.24	17.958
14.46	17.544
14.68	20.086
14.9	11.644
15.12	11.135
15.34	8.204
15.56	14.004
15.78	0.358
16	14.56
16.22	15.717
16.44	18.079
16.66	13.865
16.88	9.844
17.1	1.11
17.32	16.298
17.54	6.978
17.76	15.664
17.98	3.571
18.2	23.431
18.42	17.753
18.64	18.204
18.86	17.985
19.08	14.234
19.3	6.697
19.52	2.624
19.74	5.489
19.96	21.718
20.18	15.454
20.4	11.26
20.62	15.171
20.84	28.855
21.06	29.309
21.28	3.933
21.5	18.107
21.72	9.542
21.94	25.597
22.16	2.812
22.38	9.049
22.6	4.968
22.82	8.134
23.04	11.627
23.26	13.591
23.48	1.734
23.7	3.225
23.92	21.903
24.14	17.222
24.36	26.358
24.58	16.352
24.8	3.3
25.02	11.412
25.24	14.418
25.46	11.254
25.68	21.037
25.9	10.292
26.12	7.09
26.34	27.936
26.56	5.838
26.78	2.793
27	19.506
27.22	9.87
27.44	8.691
27.66	9.307
27.88	12.567
28.1	10.144
28.32	22.598
28.54	16.178
28.76	16.63
28.98	19.292
29.2	27.215
29.42	19.673
29.64	0.596
29.86	20.81
30.08	10.154
30.3	13.419
30.52	19.615
30.74	26.954
30.96	5.284
31.18	28.338
31.4	17.685
31.62	29.906
31.84	36.163
32.06	6.668
32.28	29.257
32.5	9.519
32.72	24.735
32.94	18.365
33.16	14.07
33.38	0.569
33.6	11.002
33.82	7.165
34.04	5.192
34.26	22.466
34.48	2.646
34.7	19.532
34.92	17.908
35.14	3.442
35.36	11.014
35.58	13.628
35.8	10.712
36.02	8.83
36.24	10.091
36.46	3.881
36.68	0.552
36.9	6.242
37.12	15.532
37.34	25.398
37.56	8.885
37.78	21.505
38	11.133
38.22	13.016
38.44	12.291
38.66	20.232
38.88	9.291
39.1	13.785
39.32	20.972
39.54	6.779
39.76	15.566
39.98	17.494
40.2	17.915
40.42	1.105
40.64	10.263
40.86	6.772
41.08	0.378
41.3	1.522
41.52	22.618
41.74	0.945
41.96	6.073
42.18	20.563
42.4	15.037
42.62	9.609
42.84	0.009
43.06	12.784
43.28	7.103
43.5	6.321
43.72	5.726
43.94	5.911
44.16	11.213
44.38	9.879
44.6	11.165
44.82	24.884
45.04	21.389
45.26	19.158
45.48	18.03
45.7	1.522
45.92	10.758
46.14	22.243
46.36	5.392
46.58	28.652
46.8	21.054
47.02	19.391
47.24	17.781
47.46	12.589
47.68	5.234
47.9	23.822
48.12	10.347
48.34	23.949
48.56	16.169
48.78	20.292
49	25.092
49.22	10.138
49.44	9.656
49.66	19.246
49.88	13.268
50.1	21.912
50.32	22.199
50.54	1.265
50.76	9.273
50.98	12.494
51.2	15.997
51.42	18.667
51.64	5.387
51.86	11.148
52.08	4.482
52.3	20.376
52.52	13.598
52.74	6.896
52.96	17.997
53.18	7.813
53.4	2.917
53.62	12.449
53.84	9.149
54.06	2.044
54.28	5.901
54.5	9.065
54.72	4.106
54.94	13.42
55.16	8.285
55.38	15.747
55.6	12.329
55.82	1.551
56.04	1.816
56.26	3.756
56.48	8.564
56.7	7.197
56.92	10.107
57.14	20.843
57.36	10.518
57.58	18.656
57.8	3.003
58.02	14.195
58.24	8.473
58.46	13.931
58.68	0.081
58.9	29.742
59.12	8.445
59.34	9.567
59.56	10.238
59.78	3.566
60	9.808
60.22	20.006
60.44	29.733
60.66	7.976
60.88	6.105
61.1	13.529
61.32	22.452
61.54	17.149
61.76	13.31
61.98	11.999
62.2	10.951
62.42	23.746
62.64	13.571
62.86	10.475
63.08	8.382
63.3	6.386
63.52	20.521
63.74	10.595
63.96	12.681
64.18	20.142
64.4	15.205
64.62	3.275
64.84	31.355
65.06	6.801
65.28	18.729
65.5	12.395
65.72	13.348
65.94	1.55
66.16	15.396
66.38	13.633
66.6	17.393
66.82	15.295
67.04	17.612
67.26	16.41
67.48	26.723
67.7	12.505
67.92	3.385
68.14	14.047
68.36	5.267
68.58	2.362
68.8	3.52
69.02	28.516
69.24	13.878
69.46	3.184
69.68	13.119
69.9	26.825
70.12	17.354
70.34	16.091
70.56	17.909
70.78	6.482
71	16.344
71.22	8.915
71.44	32.713
71.66	2.338
71.88	5.36
72.1	9.432
72.32	1.426
72.54	21.12
72.76	9.23
72.98	0.016
73.2	30.378
73.42	17.132
73.64	7.459
73.86	7.622
74.08	12.343
74.3	0.04
74.52	4.121
74.74	17.48
74.96	11.534
75.18	2.494
75.4	2.15
75.62	9.417
75.84	10.169
76.06	6.121
76.28	0.382
76.5	0.248
76.72	1.073
76.94	11.021
77.16	15.165
77.38	11.358
77.6	4.964
77.82	14.141
78.04	11.401
78.26	4.114
78.48	14.224
78.7	5.622
78.92	5.64
79.14	5.552
79.36	19.131
79.58	3.307
79.8	9.358
80.02	10.675
80.24	18.784
80.46	11.838
80.68	11.989
80.9	7.909
81.12	14.59
81.34	5.269
81.56	8.297
81.78	20.237
82	11.725
82.22	8.66
82.44	22.197
82.66	6.146
82.88	11.162
83.1	26.748
83.32	7.654
83.54	1.76
83.76	12.408
83.98	15.895
84.2	20.255
84.42	24.73
84.64	15.782
84.86	7.215
85.08	11.964
85.3	3.225
85.52	11.413
85.74	8.756
85.96	10.948
86.18	7.517
86.4	4.529
86.62	18.415
86.84	17.377
87.06	20.409
87.28	6.779
87.5	5.504
87.72	3.328
87.94	1.515
88.16	11.536
88.38	11.701
88.6	16.781
88.82	7.035
89.04	9.085
89.26	17.527
89.48	21.318
89.7	13.576
89.92	4.501
