Measurement: Powder, Xray Data XY Processed
Mineral: Cinnabar
Rruff sample: R050072
Ideal chemistry: HgS
Locality: Gui Zhu, Hunan Province, China
Source: Rock Currier
Description: Red single crystal associated with calcite
Diffraction sample description: Powder
Measured chemistry: Hg_1.00_S_1.00_
Cell parameters: a: 4.1484(2) b: 4.1484(2) c: 9.4962(5) alpha: 90. beta: 90. gamma: 120. volume: 141.53(1) crystal system: hexagonal
x	intensity
5	0
5.22	6.18
5.44	4.019
5.66	10.514
5.88	11.352
6.1	7.418
6.32	7.65
6.54	4.898
6.76	13.241
6.98	8.782
7.2	14.268
7.42	8.819
7.64	7.37
7.86	10.752
8.08	3.052
8.3	7.201
8.52	5.284
8.74	6.067
8.96	11.838
9.18	4.652
9.4	2.425
9.62	5.286
9.84	10.314
10.06	11.255
10.28	8.31
10.5	6.277
10.72	8.349
10.94	1.434
11.16	11.715
11.38	6.003
11.6	2.098
11.82	9.161
12.04	10.954
12.26	0.013
12.48	4.036
12.7	3.028
12.92	9.235
13.14	4.368
13.36	1.466
13.58	6.459
13.8	3.313
14.02	2.47
14.24	3.445
14.46	2.611
14.68	1.658
14.9	9.613
15.12	6.448
15.34	4.588
15.56	8.546
15.78	6.371
16	10.749
16.22	1.882
16.44	0.201
16.66	2.787
16.88	2.716
17.1	6.731
17.32	3.63
17.54	3.584
17.76	6.391
17.98	5.365
18.2	8.356
18.42	4.075
18.64	2.863
18.86	8.789
19.08	7.995
19.3	1.891
19.52	1.852
19.74	2.747
19.96	0.664
20.18	12.765
20.4	1.718
20.62	7.533
20.84	6.454
21.06	3.473
21.28	8.52
21.5	2.614
21.72	5.588
21.94	15.453
22.16	7.445
22.38	6.406
22.6	4.237
22.82	1.072
23.04	0.741
23.26	3.608
23.48	8.606
23.7	6.206
23.92	6.813
24.14	4.883
24.36	7.704
24.58	3.389
24.8	13.805
25.02	0.226
25.24	3.673
25.46	5.313
25.68	1.697
25.9	2.898
26.12	13.956
26.34	84.407
26.56	532.073
26.78	44.741
27	10.564
27.22	4.71
27.44	3.018
27.66	4.547
27.88	3.037
28.1	53.889
28.32	54.366
28.54	3.731
28.76	7.461
28.98	0.472
29.2	0.137
29.42	0.023
29.64	1.358
29.86	4.228
30.08	5.963
30.3	3.357
30.52	10.985
30.74	14.964
30.96	33.451
31.18	446.945
31.4	132.174
31.62	23.128
31.84	10.425
32.06	1.86
32.28	9.381
32.5	3.952
32.72	4.527
32.94	3.973
33.16	2.829
33.38	1.536
33.6	6.846
33.82	14.069
34.04	7.413
34.26	1.377
34.48	4.368
34.7	3.612
34.92	0.578
35.14	6.624
35.36	9.647
35.58	7.818
35.8	0.673
36.02	4.199
36.24	4.314
36.46	5.176
36.68	4.987
36.9	4.72
37.12	14.59
37.34	0.451
37.56	12.324
37.78	26.393
38	23.195
38.22	1.815
38.44	1.881
38.66	8.836
38.88	0.154
39.1	8.064
39.32	1.628
39.54	6.404
39.76	6.467
39.98	4.466
40.2	8.344
40.42	1.469
40.64	6.373
40.86	4.642
41.08	6.495
41.3	9.509
41.52	6.753
41.74	8.191
41.96	0.714
42.18	5.19
42.4	6.569
42.62	0.82
42.84	1.091
43.06	4.326
43.28	7.433
43.5	55.515
43.72	84.354
43.94	11.439
44.16	4.816
44.38	3.32
44.6	36.929
44.82	38.707
45.04	5.664
45.26	0.804
45.48	16.181
45.7	58.338
45.92	96.149
46.14	18.852
46.36	6.48
46.58	2.949
46.8	2.659
47.02	1.254
47.24	2.856
47.46	13.391
47.68	2.059
47.9	12.19
48.12	2.433
48.34	5.538
48.56	2.881
48.78	5.845
49	2.306
49.22	7.522
49.44	0.154
49.66	0.011
49.88	1.833
50.1	1.813
50.32	7.076
50.54	4.698
50.76	9.293
50.98	1.133
51.2	2.992
51.42	8.749
51.64	40.822
51.86	52.463
52.08	13.811
52.3	8.266
52.52	19.509
52.74	86.609
52.96	49.079
53.18	6.48
53.4	9.027
53.62	3.645
53.84	1.718
54.06	4.831
54.28	19.439
54.5	54.334
54.72	82.625
54.94	21.926
55.16	9.925
55.38	7.634
55.6	10.175
55.82	0.59
56.04	2.682
56.26	4.742
56.48	10.127
56.7	10.133
56.92	4.056
57.14	4.755
57.36	1.062
57.58	0.312
57.8	1.047
58.02	8.717
58.24	41.464
58.46	16.915
58.68	1.735
58.9	11.787
59.12	26.143
59.34	20.375
59.56	5.972
59.78	2.61
60	6.019
60.22	2.257
60.44	4.124
60.66	6.473
60.88	3.242
61.1	2.907
61.32	3.03
61.54	2.742
61.76	1.05
61.98	1.844
62.2	5.967
62.42	6.985
62.64	8.667
62.86	4.836
63.08	13.734
63.3	2.505
63.52	5.342
63.74	5.066
63.96	10.832
64.18	5.328
64.4	15.864
64.62	15.278
64.84	9.439
65.06	33.455
65.28	18.247
65.5	4.219
65.72	6.319
65.94	5.397
66.16	0.565
66.38	11.241
66.6	8.584
66.82	18.114
67.04	6.472
67.26	11.367
67.48	3.756
67.7	6.275
67.92	11.067
68.14	3.728
68.36	6.283
68.58	3.784
68.8	14.825
69.02	4.147
69.24	16.482
69.46	5.941
69.68	22.486
69.9	41.852
70.12	38.727
70.34	2.146
70.56	3.56
70.78	5.74
71	0.972
71.22	1.175
71.44	9.389
71.66	5.561
71.88	3.704
72.1	16.936
72.32	42.6
72.54	26.019
72.76	13.952
72.98	16.367
73.2	3.667
73.42	1.508
73.64	9.176
73.86	9.764
74.08	6.3
74.3	8.697
74.52	13.845
74.74	13.701
74.96	7.922
75.18	3.317
75.4	19.084
75.62	18.036
75.84	14.334
76.06	8.1
76.28	18.315
76.5	13.282
76.72	4.494
76.94	2.397
77.16	6.302
77.38	2.095
77.6	3.808
77.82	0.597
78.04	8.044
78.26	5.454
78.48	3.054
78.7	0.864
78.92	2.524
79.14	5.01
79.36	2.85
79.58	6.997
79.8	4.652
80.02	13.316
80.24	6.951
80.46	11.379
80.68	4.859
80.9	13.769
81.12	10.259
81.34	7.506
81.56	14.403
81.78	9.557
82	10.388
82.22	3.552
82.44	2.757
82.66	8.997
82.88	9.526
83.1	12.921
83.32	14.98
83.54	10.836
83.76	2.731
83.98	4.891
84.2	8.668
84.42	0.572
84.64	1.403
84.86	6.346
85.08	10.984
85.3	4.368
85.52	0.808
85.74	3.454
85.96	2.403
86.18	14.96
86.4	6.739
86.62	9.768
86.84	0.165
87.06	1.597
87.28	7.696
87.5	1.918
87.72	4.143
87.94	5.614
88.16	6.305
88.38	13.775
88.6	12.966
88.82	14.417
89.04	12.721
89.26	4.598
89.48	7.293
89.7	4.883
89.92	3.567
