Measurement: Powder, Xray Data XY Processed
Mineral: Clinochlore
Rruff sample: R060725
Ideal chemistry: Mg_5_Al(AlSi_3_O_10_)(OH)_8_
Locality: Crestmore Quarry, Riverside, California, USA
Source: Bob Jenkins
Description: Green transparent books of mica
Diffraction sample description: Powder
Measured chemistry: (Mg_4.65_Al_1.12_Fe^2+^_0.17_[box]_0.06_)_Σ=6_(Si_3.00_Al_1.00_)_Σ=4_O_10_(OH)_8_
Cell parameters: a: 5.305(1) b: 9.180(2) c: 14.339(1) alpha: 90 beta: 97.57(3) gamma: 90 volume: 692.2(3) crystal system: monoclinic
x	intensity
5	0
5.22	12.3147
5.44	25.9165
5.66	23.1809
5.88	13.3866
6.1	170.446
6.32	143.788
6.54	30.0516
6.76	14.7389
6.98	15.5199
7.2	18.0316
7.42	1.99613
7.64	0.994423
7.86	2.79299
8.08	6.48678
8.3	5.62277
8.52	15.4155
8.74	1.67413
8.96	20.8787
9.18	20.6735
9.4	4.0442
9.62	7.34019
9.84	8.67274
10.06	8.91748
10.28	18.0732
10.5	17.4001
10.72	2.21351
10.94	17.8473
11.16	15.2981
11.38	17.9356
11.6	5.40617
11.82	0.995125
12.04	25.9339
12.26	48.6216
12.48	1849.51
12.7	46.2508
12.92	20.3191
13.14	20.1714
13.36	29.6481
13.58	1.31987
13.8	11.4602
14.02	15.4324
14.24	11.7322
14.46	1.64019
14.68	21.4192
14.9	10.2243
15.12	23.3761
15.34	1.4391
15.56	28.6683
15.78	13.5547
16	2.24989
16.22	3.40559
16.44	2.5731
16.66	0.38472
16.88	15.4257
17.1	16.5578
17.32	27.5784
17.54	29.7164
17.76	2.80976
17.98	22.7513
18.2	19.3051
18.42	19.7834
18.64	94.2749
18.86	95.4274
19.08	16.8436
19.3	24.6471
19.52	14.3793
19.74	9.13853
19.96	0.620567
20.18	5.70274
20.4	5.77465
20.62	10.6893
20.84	11.1682
21.06	17.0889
21.28	12.4712
21.5	16.9458
21.72	10.5831
21.94	14.5455
22.16	4.31985
22.38	18.1032
22.6	25.6684
22.82	2.23363
23.04	18.777
23.26	0.607132
23.48	15.9621
23.7	7.44243
23.92	14.6964
24.14	7.32386
24.36	15.6384
24.58	13.5273
24.8	22.8241
25.02	367.214
25.24	50.9096
25.46	18.5558
25.68	12.1893
25.9	5.31272
26.12	9.65945
26.34	11.1335
26.56	6.80982
26.78	8.52092
27	6.97254
27.22	27.9341
27.44	12.078
27.66	11.5602
27.88	4.54803
28.1	19.9522
28.32	4.01474
28.54	14.7374
28.76	3.80687
28.98	14.099
29.2	20.484
29.42	59.9982
29.64	0.993977
29.86	11.0686
30.08	13.8367
30.3	4.20838
30.52	4.49735
30.74	4.64828
30.96	1.24238
31.18	9.92192
31.4	67.44
31.62	14.8061
31.84	20.3001
32.06	3.26392
32.28	5.51072
32.5	20.252
32.72	13.3002
32.94	9.28926
33.16	17.3323
33.38	8.58496
33.6	17.8814
33.82	16.333
34.04	15.5807
34.26	8.47522
34.48	6.78872
34.7	22.5985
34.92	8.61994
35.14	28.0935
35.36	18.8841
35.58	14.8498
35.8	14.1693
36.02	1.89761
36.24	8.02089
36.46	2.01797
36.68	23.6293
36.9	17.0257
37.12	0.551086
37.34	6.09434
37.56	16.6461
37.78	25.2134
38	29.926
38.22	8.34573
38.44	7.39211
38.66	1.32614
38.88	7.63176
39.1	0.086658
39.32	13.4752
39.54	5.82231
39.76	16.0147
39.98	22.5132
40.2	13.301
40.42	2.84239
40.64	1.24455
40.86	3.68506
41.08	2.5245
41.3	26.8164
41.52	13.7306
41.74	15.4832
41.96	9.19483
42.18	4.80683
42.4	18.3237
42.62	14.3374
42.84	16.4819
43.06	13.6687
43.28	16.5277
43.5	18.8203
43.72	15.7378
43.94	8.71275
44.16	3.90767
44.38	4.9207
44.6	68.4052
44.82	7.07857
45.04	4.80916
45.26	11.4402
45.48	10.1609
45.7	3.93325
45.92	13.7858
46.14	4.03884
46.36	6.77441
46.58	4.42909
46.8	6.07876
47.02	25.6054
47.24	2.42127
47.46	12.4925
47.68	12.3877
47.9	15.6569
48.12	6.49988
48.34	20.2706
48.56	12.6532
48.78	8.90346
49	5.23294
49.22	17.5206
49.44	7.7362
49.66	8.72291
49.88	32.3996
50.1	9.10406
50.32	7.59472
50.54	9.14266
50.76	12.9053
50.98	8.95673
51.2	1.19196
51.42	14.6367
51.64	0.27672
51.86	0.243195
52.08	11.8848
52.3	8.5316
52.52	10.4354
52.74	6.47071
52.96	9.23837
53.18	8.41674
53.4	5.05263
53.62	6.28549
53.84	4.14021
54.06	0.888224
54.28	12.062
54.5	21.7097
54.72	12.2805
54.94	13.2431
55.16	10.1559
55.38	2.38982
55.6	10.345
55.82	0.512886
56.04	4.58345
56.26	7.95786
56.48	2.97845
56.7	4.21501
56.92	9.95223
57.14	9.54357
57.36	5.42524
57.58	2.55958
57.8	7.41976
58.02	11.5841
58.24	6.56462
58.46	15.6971
58.68	12.0891
58.9	18.1899
59.12	8.02529
59.34	4.81324
59.56	1.92009
59.78	8.27538
60	13.6128
60.22	6.75576
60.44	9.99782
60.66	8.1426
60.88	7.15784
61.1	2.48923
61.32	11.6843
61.54	17.041
61.76	16.3916
61.98	4.77358
62.2	10.0781
62.42	12.1175
62.64	12.6062
62.86	7.82551
63.08	8.97069
63.3	12.1732
63.52	7.08897
63.74	8.29323
63.96	7.29906
64.18	6.16143
64.4	0.807962
64.62	0.056281
64.84	8.85956
65.06	7.65536
65.28	12.3483
65.5	9.22476
65.72	16.8573
65.94	2.66167
66.16	12.3044
66.38	7.12828
66.6	11.0857
66.82	11.3097
67.04	10.3031
67.26	14.4518
67.48	0.360168
67.7	2.71826
67.92	4.19064
68.14	11.3797
68.36	9.00804
68.58	6.61881
68.8	15.9167
69.02	1.32208
69.24	2.92666
69.46	0.804013
69.68	2.83849
69.9	4.30667
70.12	4.02218
70.34	12.0463
70.56	4.8743
70.78	6.98185
71	9.70831
71.22	2.27925
71.44	6.3184
71.66	13.5417
71.88	12.5177
72.1	4.52135
72.32	6.572
72.54	3.82695
72.76	3.91565
72.98	2.02791
73.2	10.7914
73.42	9.05837
73.64	2.673
73.86	8.45699
74.08	7.55125
74.3	3.52927
74.52	7.53682
74.74	9.5996
74.96	6.73468
75.18	3.7259
75.4	4.87322
75.62	6.93852
75.84	13.1334
76.06	7.98628
76.28	8.07199
76.5	5.97649
76.72	4.19612
76.94	10.5706
77.16	4.50597
77.38	4.2764
77.6	15.6042
77.82	6.44251
78.04	5.38792
78.26	0.96872
78.48	3.30533
78.7	11.4591
78.92	4.23659
79.14	12.0781
79.36	8.70135
79.58	10.8287
79.8	11.986
80.02	1.55643
80.24	4.72884
80.46	4.78311
80.68	21.8477
80.9	3.30128
81.12	13.6077
81.34	10.8809
81.56	5.01344
81.78	7.52409
82	10.7973
82.22	6.67977
82.44	5.0111
82.66	12.2211
82.88	8.24066
83.1	9.2501
83.32	10.9722
83.54	8.01481
83.76	5.29424
83.98	14.7437
84.2	0.123972
84.42	14.8248
84.64	4.97415
84.86	10.6985
85.08	11.3177
85.3	7.35435
85.52	1.74697
85.74	13.2894
85.96	9.25491
86.18	6.46446
86.4	6.33329
86.62	1.45901
86.84	2.24481
87.06	7.79698
87.28	7.86784
87.5	6.92994
87.72	1.11016
87.94	5.59857
88.16	1.53992
88.38	3.58697
88.6	8.72195
88.82	5.02946
89.04	9.06885
89.26	8.15932
89.48	5.7224
89.7	7.58101
89.92	12.1863
