Measurement: Powder, Xray Data XY Processed
Mineral: Clinofergusonite-(Y)
Rruff sample: R080103
Ideal chemistry: Y^3+^Nb^5+^O_4_
Locality: Arendal, Aust-Agder, Norway
Source: James Shigley
Description: Olive green fragment from metamict sample R070600, after heating at T = 1000 C for 20 hours
Diffraction sample description: Powder
Cell parameters: a: 7.642(2) b: 10.975(1) c: 5.315(1) alpha: 90 beta: 138.56(1) gamma: 90 volume: 295.00(7) crystal system: monoclinic
x	intensity
5	0
5.22	19.2602
5.44	15.0469
5.66	11.7737
5.88	18.0083
6.1	11.4446
6.32	8.63835
6.54	13.8193
6.76	4.44885
6.98	11.1793
7.2	15.84
7.42	14.2002
7.64	10.2208
7.86	7.71049
8.08	16.9882
8.3	27.7172
8.52	17.8614
8.74	15.4171
8.96	27.1898
9.18	19.8204
9.4	7.00657
9.62	12.0472
9.84	27.5202
10.06	13.7839
10.28	15.4105
10.5	13.2935
10.72	12.8486
10.94	10.3419
11.16	11.0259
11.38	22.0236
11.6	16.1515
11.82	1.27103
12.04	6.55499
12.26	7.42086
12.48	11.7672
12.7	20.9803
12.92	6.32429
13.14	19.4256
13.36	16.1115
13.58	15.3183
13.8	38.4178
14.02	8.95738
14.24	16.929
14.46	24.7247
14.68	2.24828
14.9	4.23049
15.12	21.2143
15.34	12.6121
15.56	13.6402
15.78	0.314781
16	13.5711
16.22	29.6519
16.44	13.4783
16.66	13.216
16.88	22.1067
17.1	4.79808
17.32	31.241
17.54	30.315
17.76	18.776
17.98	26.8746
18.2	3.71909
18.42	13.267
18.64	13.6596
18.86	9.82759
19.08	8.3394
19.3	19.7178
19.52	19.8287
19.74	15.8004
19.96	12.3409
20.18	14.335
20.4	7.22533
20.62	23.9128
20.84	20.3603
21.06	14.5315
21.28	4.0799
21.5	22.1793
21.72	23.3062
21.94	25.8527
22.16	21.087
22.38	12.5495
22.6	4.55046
22.82	12.164
23.04	14.9095
23.26	30.3554
23.48	21.2377
23.7	4.52461
23.92	14.7906
24.14	16.9489
24.36	5.44423
24.58	7.4848
24.8	8.6425
25.02	13.5741
25.24	14.0206
25.46	17.906
25.68	27.428
25.9	16.1127
26.12	5.7206
26.34	18.577
26.56	8.55407
26.78	2.01931
27	7.55663
27.22	9.18611
27.44	11.5756
27.66	17.8728
27.88	10.5608
28.1	4.20287
28.32	75.0862
28.54	220.059
28.76	20.9681
28.98	23.8735
29.2	6.65292
29.42	3.83511
29.64	24.0491
29.86	54.7987
30.08	170.895
30.3	96.5693
30.52	21.2074
30.74	7.81599
30.96	3.65446
31.18	5.12169
31.4	20.258
31.62	12.9424
31.84	1.464
32.06	25.9816
32.28	21.8623
32.5	18.7486
32.72	60.2584
32.94	27.4637
33.16	0.594429
33.38	19.1694
33.6	31.1936
33.82	48.6163
34.04	16.9392
34.26	9.37285
34.48	6.66225
34.7	9.33563
34.92	11.2803
35.14	42.6103
35.36	31.7192
35.58	31.8527
35.8	31.0634
36.02	32.2031
36.24	8.77999
36.46	12.125
36.68	10.1447
36.9	14.034
37.12	5.84722
37.34	4.57729
37.56	18.7088
37.78	23.5393
38	15.7952
38.22	13.0331
38.44	2.11475
38.66	17.9512
38.88	8.75714
39.1	3.64407
39.32	11.1242
39.54	1.74556
39.76	11.3137
39.98	17.4501
40.2	10.2791
40.42	10.4159
40.64	29.2045
40.86	2.70262
41.08	1.57383
41.3	9.67675
41.52	8.91887
41.74	29.9535
41.96	5.14487
42.18	10.3508
42.4	7.46825
42.62	6.79052
42.84	23.4341
43.06	7.30843
43.28	19.1031
43.5	23.4599
43.72	16.8407
43.94	10.9486
44.16	8.01725
44.38	4.4201
44.6	4.89854
44.82	24.4272
45.04	22.4446
45.26	6.84187
45.48	2.20083
45.7	9.59521
45.92	7.12024
46.14	18.3185
46.36	3.94381
46.58	0.328438
46.8	8.50893
47.02	6.97255
47.24	11.263
47.46	22.9195
47.68	95.9438
47.9	34.1818
48.12	5.23566
48.34	12.3788
48.56	11.4783
48.78	24.8306
49	47.1195
49.22	20.7457
49.44	4.83594
49.66	5.06464
49.88	7.86292
50.1	5.7564
50.32	10.066
50.54	3.73433
50.76	22.1142
50.98	4.45229
51.2	7.92291
51.42	10.4751
51.64	15.2214
51.86	26.254
52.08	33.9533
52.3	9.61313
52.52	7.65977
52.74	2.67863
52.96	1.86379
53.18	5.7748
53.4	1.06115
53.62	13.2554
53.84	12.3695
54.06	1.12078
54.28	15.781
54.5	16.873
54.72	4.12726
54.94	13.5559
55.16	2.10033
55.38	2.45882
55.6	23.6559
55.82	18.5954
56.04	8.62965
56.26	27.299
56.48	21.157
56.7	20.0124
56.92	10.5198
57.14	9.08197
57.36	0.322172
57.58	11.6667
57.8	5.11903
58.02	0.412373
58.24	2.73664
58.46	18.0439
58.68	29.9802
58.9	23.6536
59.12	22.9111
59.34	21.9947
59.56	1.28935
59.78	8.91878
60	14.3655
60.22	11.7245
60.44	7.06195
60.66	4.40981
60.88	7.61471
61.1	10.6944
61.32	14.4624
61.54	24.3189
61.76	6.79427
61.98	2.77439
62.2	2.29758
62.42	9.86604
62.64	8.21199
62.86	8.05986
63.08	15.9505
63.3	1.31903
63.52	0.701979
63.74	3.06749
63.96	10.6706
64.18	8.17799
64.4	5.24495
64.62	9.13253
64.84	9.34015
65.06	2.46616
65.28	4.08612
65.5	10.7856
65.72	3.17264
65.94	9.0736
66.16	3.13228
66.38	5.96915
66.6	2.75076
66.82	18.9033
67.04	14.5718
67.26	8.49261
67.48	6.48494
67.7	3.95123
67.92	8.86396
68.14	16.6645
68.36	9.28084
68.58	8.16408
68.8	9.2377
69.02	8.0659
69.24	10.9816
69.46	9.00194
69.68	10.9619
69.9	5.29955
70.12	10.9445
70.34	9.66143
70.56	9.34901
70.78	10.7437
71	8.62732
71.22	18.4553
71.44	6.35043
71.66	4.54381
71.88	11.8448
72.1	16.8849
72.32	1.19605
72.54	9.47775
72.76	7.01591
72.98	4.32604
73.2	5.5847
73.42	12.4801
73.64	5.63843
73.86	7.384
74.08	6.28234
74.3	1.99815
74.52	8.53499
74.74	8.23441
74.96	7.42071
75.18	8.85977
75.4	8.77075
75.62	5.43667
75.84	15.3003
76.06	6.06697
76.28	4.81166
76.5	4.96683
76.72	6.93151
76.94	22.1353
77.16	12.7844
77.38	4.44828
77.6	14.4259
77.82	8.3433
78.04	19.6134
78.26	16.742
78.48	15.5288
78.7	24.8326
78.92	16.966
79.14	6.37658
79.36	10.1026
79.58	12.2221
79.8	0.425449
80.02	3.08731
80.24	1.129
80.46	14.7652
80.68	15.7882
80.9	13.9073
81.12	0.955681
81.34	11.6079
81.56	6.21798
81.78	5.295
82	13.6472
82.22	10.6783
82.44	8.68621
82.66	5.07246
82.88	11.5699
83.1	9.84265
83.32	0.030519
83.54	6.08756
83.76	5.40337
83.98	10.6932
84.2	7.78488
84.42	17.7096
84.64	22.037
84.86	4.71293
85.08	2.38271
85.3	10.4315
85.52	8.43625
85.74	9.39608
85.96	6.24884
86.18	15.9851
86.4	8.81496
86.62	15.7541
86.84	5.59843
87.06	9.42331
87.28	4.51884
87.5	13.6736
87.72	16.5827
87.94	9.7113
88.16	7.28051
88.38	5.6031
88.6	8.99559
88.82	11.8263
89.04	11.354
89.26	11.7214
89.48	1.44476
89.7	13.638
89.92	5.62964
