Measurement: Powder, Xray Data XY Processed
Mineral: Clinohumite
Rruff sample: R050183
Ideal chemistry: Mg_9_(SiO_4_)_4_F_2_
Locality: Pein Pyit, Mogok, Burma
Source: Marcus Origlieri
Description: Yellowish-green blebs in calcite, associated with red spinel, R050184
Diffraction sample description: Powder
Measured chemistry: (Mg_8.85_Ti_0.07_[box]_0.07_Fe_0.01_)_Σ=9_(Si_1.00_O_4_)_4_(F_1.00_(OH)_1.00_)_Σ=2_
Cell parameters: a: 4.7384(4) b: 10.229(1) c: 13.6320(5) alpha: 100.863(5) beta: 90. gamma: 90. volume: 648.93(7) crystal system: monoclinic
x	intensity
5	0
5.22	11.638
5.44	19.159
5.66	8.943
5.88	11.292
6.1	4.537
6.32	0.854
6.54	17.592
6.76	8.182
6.98	1.704
7.2	6.159
7.42	2.729
7.64	6.397
7.86	4.958
8.08	4.417
8.3	6.061
8.52	7.865
8.74	5.468
8.96	11.16
9.18	9.514
9.4	13.901
9.62	10.273
9.84	3.609
10.06	0.97
10.28	11.246
10.5	12.374
10.72	11.616
10.94	6.405
11.16	8.064
11.38	11.722
11.6	4.641
11.82	0.322
12.04	5.501
12.26	9.346
12.48	2.149
12.7	0.948
12.92	8.001
13.14	9.624
13.36	7.897
13.58	13.035
13.8	4.16
14.02	0.448
14.24	7.465
14.46	3.766
14.68	2.051
14.9	6.278
15.12	2.777
15.34	3.949
15.56	0.199
15.78	3.369
16	1.491
16.22	1.098
16.44	13.034
16.66	8.123
16.88	1.099
17.1	3.272
17.32	7.286
17.54	4.032
17.76	29.155
17.98	11.428
18.2	0.793
18.42	6.236
18.64	3.859
18.86	3.899
19.08	4.027
19.3	4.108
19.52	1.166
19.74	10.319
19.96	53.663
20.18	0.507
20.4	6.372
20.62	4.617
20.84	10.724
21.06	0.123
21.28	16.961
21.5	8.884
21.72	6.794
21.94	2.598
22.16	7.243
22.38	12.305
22.6	3.211
22.82	4.976
23.04	70.676
23.26	5.338
23.48	7.507
23.7	6.474
23.92	15.439
24.14	82.711
24.36	7.854
24.58	4.862
24.8	3.349
25.02	11.526
25.24	4.563
25.46	9.454
25.68	22.626
25.9	51.11
26.12	0.128
26.34	7.174
26.56	6.602
26.78	6.635
27	4.695
27.22	5.665
27.44	16.951
27.66	43.266
27.88	3.647
28.1	3.588
28.32	2.671
28.54	4.705
28.76	1.11
28.98	1.952
29.2	6.903
29.42	8.939
29.64	24.818
29.86	4.572
30.08	12.311
30.3	6.321
30.52	8.349
30.74	25.236
30.96	10.252
31.18	5.861
31.4	1.357
31.62	0.557
31.84	13.286
32.06	2.15
32.28	12.945
32.5	27.656
32.72	92.392
32.94	2.617
33.16	2.784
33.38	9.497
33.6	6.396
33.82	1.386
34.04	4.337
34.26	3.177
34.48	72.064
34.7	0.011
34.92	11.009
35.14	4.862
35.36	85.672
35.58	10.818
35.8	70.015
36.02	11.756
36.24	11.875
36.46	6.968
36.68	3.152
36.9	2.182
37.12	1.138
37.34	16.093
37.56	15.135
37.78	5.69
38	3.317
38.22	24.898
38.44	4.557
38.66	3.22
38.88	9.95
39.1	50.589
39.32	5.427
39.54	1.539
39.76	11.576
39.98	174.345
40.2	24.219
40.42	20.728
40.64	10.243
40.86	4.317
41.08	8.64
41.3	31.054
41.52	0.761
41.74	0.248
41.96	9.457
42.18	1.756
42.4	13.013
42.62	5.366
42.84	2.476
43.06	6.133
43.28	9.315
43.5	25.439
43.72	5.657
43.94	1.472
44.16	1.572
44.38	4.46
44.6	20.038
44.82	3.644
45.04	6.441
45.26	3.473
45.48	6.531
45.7	5.559
45.92	13.551
46.14	7.594
46.36	3.489
46.58	2.38
46.8	5.418
47.02	6.058
47.24	17.666
47.46	0.503
47.68	10.247
47.9	5.196
48.12	1.124
48.34	2.033
48.56	15.707
48.78	11.622
49	12.834
49.22	10.056
49.44	4.801
49.66	1.492
49.88	8.487
50.1	7.479
50.32	0.508
50.54	4.263
50.76	13.301
50.98	15.777
51.2	22.701
51.42	12.261
51.64	20.883
51.86	4.85
52.08	1.851
52.3	15.994
52.52	280.057
52.74	32.494
52.96	6.631
53.18	9.703
53.4	4.316
53.62	0.505
53.84	13.026
54.06	11.256
54.28	9.722
54.5	39.907
54.72	11.821
54.94	4.733
55.16	5.66
55.38	4.759
55.6	5.499
55.82	5.33
56.04	7.157
56.26	5.625
56.48	7.346
56.7	4.293
56.92	9.258
57.14	490.233
57.36	12.544
57.58	24.651
57.8	10.584
58.02	6.716
58.24	5.002
58.46	2.181
58.68	1.35
58.9	4.706
59.12	3.455
59.34	2.367
59.56	3.31
59.78	2.712
60	3.073
60.22	11.292
60.44	112.164
60.66	8.973
60.88	0.816
61.1	4.47
61.32	4.307
61.54	14.121
61.76	2.021
61.98	2.867
62.2	5.652
62.42	40.401
62.64	24.402
62.86	25.689
63.08	21.004
63.3	3.376
63.52	4.015
63.74	7.654
63.96	4.111
64.18	4.446
64.4	2.719
64.62	2.756
64.84	4.872
65.06	18.208
65.28	11.069
65.5	1.862
65.72	0.495
65.94	2.062
66.16	1.646
66.38	2.53
66.6	6.567
66.82	14.676
67.04	17.612
67.26	12.697
67.48	1.303
67.7	0.258
67.92	1.268
68.14	6.378
68.36	0.112
68.58	38.023
68.8	15.969
69.02	14.882
69.24	5.772
69.46	3.845
69.68	0.988
69.9	21.178
70.12	9.325
70.34	5.576
70.56	4.59
70.78	0.23
71	7.262
71.22	8.341
71.44	3.42
71.66	4.678
71.88	18.988
72.1	15.931
72.32	22.857
72.54	6.741
72.76	1.797
72.98	4.903
73.2	1.905
73.42	6.929
73.64	12.121
73.86	10.332
74.08	5.977
74.3	8.219
74.52	5.212
74.74	8.522
74.96	2.714
75.18	8.636
75.4	1.751
75.62	0.297
75.84	6.52
76.06	6.19
76.28	5.038
76.5	0.051
76.72	5.669
76.94	7.451
77.16	2.184
77.38	0.969
77.6	2.965
77.82	1.94
78.04	7.148
78.26	13.314
78.48	10.548
78.7	4.73
78.92	1.192
79.14	0.068
79.36	5.074
79.58	8.071
79.8	3.11
80.02	0.115
80.24	6.952
80.46	2.842
80.68	1.252
80.9	8.99
81.12	11.979
81.34	1.959
81.56	0.981
81.78	1.978
82	3.933
82.22	5.004
82.44	3.034
82.66	5.058
82.88	1.284
83.1	28.289
83.32	7.26
83.54	4.412
83.76	0.379
83.98	1.595
84.2	2.82
84.42	9.743
84.64	6.688
84.86	6.639
85.08	3.615
85.3	5.32
85.52	7.21
85.74	16.873
85.96	14.092
86.18	7.327
86.4	28.275
86.62	13.16
86.84	3.365
87.06	9.547
87.28	5.923
87.5	4.128
87.72	4.27
87.94	1.326
88.16	0.342
88.38	5.178
88.6	8.087
88.82	3.624
89.04	3.55
89.26	9.152
89.48	4.788
89.7	0.457
89.92	3.925
