Measurement: Powder, Xray Data XY Processed
Mineral: Clinoptilolite-Na
Rruff sample: R061099
Ideal chemistry: Na_6_(Si_30_Al_6_)O_72_20H_2_O
Locality: Richardson Ranch, Madras, Jefferson County, Oregon, USA
Source: Michael Scott
Description: Red-brown to salmon, somewhat coffin shaped tabular crystals in a fragmented geode
Diffraction sample description: Powder
Measured chemistry: (Na_2.70_Ca_1.46_K_0.89_Fe_0.08_Mg_0.02_)_Σ=5.15_(Si_29.29_Al_6.71_)O_72_·18.51H_2_O
Cell parameters: a: 17.663(4) b: 17.935(3) c: 7.4103(8) alpha: 90 beta: 116.431(8) gamma: 90 volume: 2102.1(4) crystal system: monoclinic
x	intensity
5	0
5.22	21.2001
5.44	15.586
5.66	9.99881
5.88	17.1087
6.1	6.09927
6.32	17.7055
6.54	11.7848
6.76	14.1514
6.98	8.5166
7.2	2.41614
7.42	22.8197
7.64	5.61465
7.86	2.83946
8.08	3.53936
8.3	1.23246
8.52	0.563057
8.74	8.11831
8.96	6.47916
9.18	0.379595
9.4	7.88333
9.62	46.3821
9.84	1297.02
10.06	47.0099
10.28	4.23504
10.5	8.04039
10.72	9.06957
10.94	4.2485
11.16	57.5955
11.38	4.26124
11.6	11.9047
11.82	5.58389
12.04	4.64708
12.26	4.22668
12.48	0.392288
12.7	8.48026
12.92	9.23358
13.14	24.9144
13.36	22.1984
13.58	18.9273
13.8	10.2544
14.02	13.8118
14.24	16.1478
14.46	9.1568
14.68	9.98615
14.9	23.1021
15.12	12.2609
15.34	10.3307
15.56	10.4354
15.78	12.1478
16	8.19345
16.22	7.4492
16.44	8.43586
16.66	19.3601
16.88	24.7221
17.1	17.3975
17.32	34.4804
17.54	16.4713
17.76	18.9193
17.98	6.07248
18.2	17.3357
18.42	12.7267
18.64	17.859
18.86	12.1345
19.08	136.988
19.3	17.0666
19.52	6.36732
19.74	9.9122
19.96	5.96578
20.18	17.6044
20.4	17.205
20.62	2.06772
20.84	17.1164
21.06	2.38537
21.28	15.3384
21.5	9.76986
21.72	23.4779
21.94	4.9284
22.16	20.5441
22.38	111.885
22.6	49.9738
22.82	168.829
23.04	17.3914
23.26	12.5174
23.48	3.31515
23.7	14.551
23.92	16.8404
24.14	15.546
24.36	3.80024
24.58	10.8802
24.8	9.27255
25.02	10.8757
25.24	2.46147
25.46	16.9831
25.68	24.7325
25.9	15.4622
26.12	23.0321
26.34	29.6944
26.56	16.0957
26.78	8.31828
27	3.79341
27.22	5.45522
27.44	5.96347
27.66	15.2827
27.88	4.04124
28.1	42.9745
28.32	20.3767
28.54	21.1942
28.76	19.3699
28.98	6.40778
29.2	7.10583
29.42	5.98196
29.64	6.37875
29.86	62.4815
30.08	110.469
30.3	34.5866
30.52	9.99221
30.74	11.9725
30.96	14.429
31.18	8.23836
31.4	9.85124
31.62	9.4771
31.84	3.33539
32.06	32.3599
32.28	18.9917
32.5	16.7286
32.72	56.1587
32.94	27.0954
33.16	15.5205
33.38	15.3797
33.6	17.2945
33.82	3.8196
34.04	13.595
34.26	17.9904
34.48	9.56963
34.7	1.16783
34.92	14.1633
35.14	9.20605
35.36	8.72031
35.58	12.4978
35.8	6.98635
36.02	1.08358
36.24	26.513
36.46	0.896406
36.68	13.1239
36.9	4.18555
37.12	10.1288
37.34	12.2423
37.56	3.61789
37.78	15.1226
38	4.65994
38.22	10.4278
38.44	12.5134
38.66	15.0694
38.88	7.95545
39.1	0.090178
39.32	5.37418
39.54	0.618551
39.76	13.5976
39.98	2.45161
40.2	17.4906
40.42	1.9056
40.64	17.421
40.86	6.44717
41.08	0.55518
41.3	10.1039
41.52	9.94751
41.74	10.6304
41.96	17.4346
42.18	13.2382
42.4	9.24297
42.62	19.8828
42.84	8.70373
43.06	8.27575
43.28	21.4627
43.5	2.99219
43.72	0.677795
43.94	9.03613
44.16	19.5405
44.38	22.4842
44.6	2.78242
44.82	8.57783
45.04	9.10124
45.26	17.5758
45.48	4.15725
45.7	2.22428
45.92	8.62603
46.14	18.9804
46.36	27.9666
46.58	11.4804
46.8	10.3391
47.02	4.19226
47.24	2.42896
47.46	6.5022
47.68	1.73678
47.9	9.16309
48.12	3.01991
48.34	12.1573
48.56	5.74391
48.78	14.9889
49	13.0098
49.22	1.92482
49.44	11.5345
49.66	8.32377
49.88	1.04869
50.1	3.76095
50.32	8.70134
50.54	1.88913
50.76	17.503
50.98	9.19119
51.2	12.7703
51.42	4.71282
51.64	10.5763
51.86	2.44166
52.08	3.42929
52.3	16.1695
52.52	1.15448
52.74	4.29496
52.96	4.75683
53.18	8.26225
53.4	13.7716
53.62	7.32504
53.84	13.1161
54.06	12.6283
54.28	5.04507
54.5	6.42154
54.72	5.30015
54.94	9.73051
55.16	1.76652
55.38	8.98439
55.6	13.1437
55.82	8.09514
56.04	3.09418
56.26	13.7883
56.48	0.885709
56.7	7.09054
56.92	1.95998
57.14	5.9967
57.36	5.78685
57.58	5.57147
57.8	7.54857
58.02	17.4973
58.24	11.393
58.46	1.55998
58.68	10.4167
58.9	4.54006
59.12	11.9513
59.34	8.23712
59.56	7.23278
59.78	14.235
60	3.56842
60.22	3.62847
60.44	5.87331
60.66	3.90557
60.88	6.02251
61.1	6.91053
61.32	3.78291
61.54	6.473
61.76	14.5967
61.98	9.4595
62.2	4.32653
62.42	4.24316
62.64	8.47801
62.86	8.38923
63.08	8.57871
63.3	3.57962
63.52	13.561
63.74	1.74222
63.96	2.72517
64.18	6.60015
64.4	5.03948
64.62	7.33416
64.84	6.59677
65.06	4.43087
65.28	8.47576
65.5	0.43543
65.72	6.61795
65.94	1.4374
66.16	7.79468
66.38	3.14382
66.6	18.3299
66.82	8.00027
67.04	15.0616
67.26	1.7366
67.48	9.67151
67.7	5.54817
67.92	1.49909
68.14	1.66395
68.36	4.33363
68.58	11.0217
68.8	2.66831
69.02	8.49949
69.24	6.67932
69.46	1.52188
69.68	7.89625
69.9	0.083771
70.12	9.60799
70.34	5.67754
70.56	12.915
70.78	12.1081
71	5.14982
71.22	7.24036
71.44	9.29492
71.66	1.83456
71.88	6.1066
72.1	8.84565
72.32	6.0684
72.54	14.9079
72.76	3.94751
72.98	7.86
73.2	11.8296
73.42	4.18186
73.64	1.40171
73.86	4.82137
74.08	6.99546
74.3	13.1095
74.52	10.1172
74.74	9.22554
74.96	12.1447
75.18	14.1336
75.4	7.13081
75.62	4.98775
75.84	1.96554
76.06	18.7681
76.28	1.58052
76.5	0.564735
76.72	3.54638
76.94	11.583
77.16	9.43003
77.38	9.49458
77.6	21.9394
77.82	4.9187
78.04	10.7268
78.26	3.95741
78.48	4.03975
78.7	4.29089
78.92	15.2392
79.14	0.242911
79.36	1.20007
79.58	4.3954
79.8	4.32951
80.02	5.07056
80.24	0.054102
80.46	0.889214
80.68	4.92143
80.9	4.83769
81.12	3.94964
81.34	9.00249
81.56	4.94198
81.78	5.06378
82	2.88471
82.22	2.94895
82.44	8.86402
82.66	13.0907
82.88	11.0361
83.1	5.09177
83.32	2.39128
83.54	0.214946
83.76	6.61805
83.98	7.8708
84.2	9.76222
84.42	4.86226
84.64	8.77459
84.86	1.37529
85.08	2.20827
85.3	0.831857
85.52	9.14018
85.74	5.89658
85.96	2.81151
86.18	4.62322
86.4	6.48508
86.62	10.449
86.84	9.74353
87.06	4.84801
87.28	2.67181
87.5	9.68168
87.72	11.7112
87.94	10.3969
88.16	8.50565
88.38	8.78324
88.6	2.97969
88.82	5.32147
89.04	5.32326
89.26	6.63433
89.48	0.210592
89.7	10.432
89.92	21.7393
