Measurement: Powder, Xray Data XY Processed
Mineral: Clintonite
Rruff sample: R070229
Ideal chemistry: CaAlMg_2_(SiAl_3_)O_10_(OH)_2_
Locality: Amity, Warwick Township, Orange County, New York, USA
Source: Michael Scott
Description: Brown micaceous plates in dolomite. Polytype 1M, variety called seybertite
Diffraction sample description: Powder
Measured chemistry: (Ca_0.98_Na_0.02_)_Σ=1_(Al_0.68_Mg_0.20_Fe^3+^_0.11_Ti_0.01_)_Σ=1_Mg_2.00_(Si_1.34_Al_2.66_)_Σ=4_O_10_((OH)_1.87_O_0.13_)_Σ=2_; OH estimated by charge balance
Cell parameters: a: 5.2003(5) b: 8.765(6) c: 9.7784(4) alpha: 90 beta: 100.212(5) gamma: 90 volume: 438.7(3) crystal system: monoclinic
x	intensity
5	0
5.22	9.8795
5.44	2.71246
5.66	2.64358
5.88	9.13706
6.1	16.4059
6.32	9.35355
6.54	19.4598
6.76	19.932
6.98	9.623
7.2	11.978
7.42	9.28562
7.64	4.56466
7.86	3.28369
8.08	9.21299
8.3	30.1521
8.52	4.09773
8.74	3.51246
8.96	18.6304
9.18	702.047
9.4	28.8006
9.62	16.5981
9.84	1.28405
10.06	5.36111
10.28	2.1217
10.5	3.00209
10.72	7.41739
10.94	0.898344
11.16	10.9546
11.38	2.69922
11.6	1.32368
11.82	6.91528
12.04	15.3806
12.26	10.1767
12.48	10.4095
12.7	19.1106
12.92	7.21545
13.14	18.8719
13.36	5.93736
13.58	24.5996
13.8	13.7471
14.02	13.8067
14.24	6.64487
14.46	13.558
14.68	14.4541
14.9	3.20714
15.12	7.25455
15.34	15.7046
15.56	7.88993
15.78	11.0546
16	15.854
16.22	10.5077
16.44	12.6324
16.66	3.56855
16.88	8.60509
17.1	5.62803
17.32	11.3204
17.54	20.0073
17.76	18.4611
17.98	24.3889
18.2	1.14323
18.42	16.5455
18.64	6.43164
18.86	3.06212
19.08	5.93601
19.3	9.85617
19.52	7.79861
19.74	11.9388
19.96	20.2817
20.18	8.3659
20.4	12.5448
20.62	12.8997
20.84	10.251
21.06	5.41148
21.28	5.54264
21.5	5.70708
21.72	5.6762
21.94	9.45694
22.16	8.67539
22.38	4.82484
22.6	3.57063
22.82	18.6638
23.04	10.6371
23.26	14.8579
23.48	14.0903
23.7	12.5469
23.92	7.5065
24.14	24.4392
24.36	3.6529
24.58	6.41864
24.8	14.6402
25.02	28.5958
25.24	23.5298
25.46	16.03
25.68	33.9273
25.9	15.4007
26.12	5.51074
26.34	12.0477
26.56	4.41818
26.78	3.61389
27	13.7546
27.22	10.9006
27.44	27.0099
27.66	92.5001
27.88	941.829
28.1	35.0673
28.32	17.5599
28.54	17.2418
28.76	17.0149
28.98	9.01516
29.2	12.4598
29.42	31.4295
29.64	21.091
29.86	19.4165
30.08	22.7612
30.3	18.2834
30.52	12.5135
30.74	5.13474
30.96	11.3038
31.18	26.9754
31.4	10.7801
31.62	35.5228
31.84	31.4261
32.06	18.9995
32.28	9.86587
32.5	14.3483
32.72	19.9419
32.94	15.9439
33.16	2.82362
33.38	1.92846
33.6	15.6408
33.82	1.17559
34.04	6.34804
34.26	20.1437
34.48	9.30106
34.7	26.9165
34.92	50.4442
35.14	145.597
35.36	24.4029
35.58	17.2388
35.8	20.8303
36.02	13.9453
36.24	22.0994
36.46	9.92071
36.68	23.4964
36.9	21.4216
37.12	10.0676
37.34	9.97099
37.56	11.2723
37.78	20.5449
38	42.9539
38.22	0.548908
38.44	6.02465
38.66	5.28428
38.88	22.4773
39.1	3.29791
39.32	0.211685
39.54	6.7436
39.76	19.4083
39.98	2.52685
40.2	11.5159
40.42	3.09646
40.64	10.5168
40.86	20.7173
41.08	39.2914
41.3	7.15887
41.52	18.4801
41.74	12.9357
41.96	11.5938
42.18	16.3855
42.4	17.263
42.62	26.2956
42.84	118.426
43.06	25.217
43.28	31.2979
43.5	15.1025
43.72	17.6628
43.94	0.070045
44.16	7.79327
44.38	7.75055
44.6	0.351973
44.82	13.3401
45.04	3.15601
45.26	7.53362
45.48	8.49185
45.7	12.5421
45.92	5.19623
46.14	10.09
46.36	13.2508
46.58	12.0609
46.8	12.0016
47.02	51.7928
47.24	134.54
47.46	12.3789
47.68	4.73953
47.9	2.43682
48.12	6.02321
48.34	4.63695
48.56	16.2428
48.78	6.96829
49	17.4607
49.22	23.6022
49.44	34.7828
49.66	2.44643
49.88	1.65567
50.1	6.81645
50.32	3.75753
50.54	11.038
50.76	23.9815
50.98	4.12874
51.2	15.0558
51.42	17.8547
51.64	15.4355
51.86	2.71706
52.08	1.90278
52.3	11.0992
52.52	15.1639
52.74	19.2475
52.96	12.0101
53.18	7.10886
53.4	15.9175
53.62	5.91946
53.84	4.12902
54.06	13.4494
54.28	27.7651
54.5	16.4477
54.72	12.0523
54.94	9.55454
55.16	6.97963
55.38	11.7591
55.6	1.15089
55.82	0.361317
56.04	3.61034
56.26	3.69716
56.48	1.87595
56.7	24.06
56.92	90.7949
57.14	25.7036
57.36	52.9267
57.58	53.69
57.8	10.0895
58.02	1.89908
58.24	21.0786
58.46	5.93783
58.68	0.608393
58.9	8.09146
59.12	9.55286
59.34	1.25002
59.56	10.9433
59.78	10.2176
60	15.6298
60.22	3.11233
60.44	2.24936
60.66	7.95988
60.88	0.013443
61.1	10.1231
61.32	7.42371
61.54	18.7986
61.76	36.8624
61.98	25.5856
62.2	6.94006
62.42	32.4964
62.64	152.972
62.86	68.9115
63.08	16.9735
63.3	8.23084
63.52	6.36097
63.74	2.25925
63.96	13.4696
64.18	13.9831
64.4	8.2789
64.62	8.86408
64.84	16.8852
65.06	0.205654
65.28	6.26402
65.5	6.22303
65.72	7.91218
65.94	14.89
66.16	6.04584
66.38	7.79804
66.6	10.4268
66.82	7.10361
67.04	10.9396
67.26	12.8074
67.48	16.9239
67.7	2.15009
67.92	13.8152
68.14	24.8388
68.36	8.96629
68.58	12.4789
68.8	2.7036
69.02	8.10221
69.24	8.62502
69.46	6.27576
69.68	12.3796
69.9	12.4711
70.12	3.24417
70.34	3.46043
70.56	9.41648
70.78	2.98802
71	10.0587
71.22	6.76145
71.44	13.3875
71.66	9.8714
71.88	31.2643
72.1	15.2765
72.32	7.09656
72.54	10.7728
72.76	5.98232
72.98	13.1381
73.2	9.50605
73.42	6.05991
73.64	9.67081
73.86	6.93165
74.08	9.07521
74.3	4.13836
74.52	9.11402
74.74	5.45216
74.96	5.06567
75.18	15.8435
75.4	6.81845
75.62	10.8141
75.84	2.65216
76.06	2.48498
76.28	4.10061
76.5	9.29992
76.72	6.85633
76.94	11.104
77.16	4.05677
77.38	5.60918
77.6	14.4404
77.82	3.32421
78.04	3.30437
78.26	0.559578
78.48	6.46837
78.7	0.820383
78.92	17.6623
79.14	2.11406
79.36	3.90489
79.58	9.84317
79.8	9.28
80.02	9.33243
80.24	3.12742
80.46	2.50866
80.68	9.17729
80.9	5.24944
81.12	21.8923
81.34	15.0442
81.56	2.26904
81.78	5.58205
82	4.74301
82.22	9.25872
82.44	10.4316
82.66	0.102619
82.88	8.51109
83.1	4.80951
83.32	6.91684
83.54	4.61966
83.76	12.7416
83.98	7.73532
84.2	9.55405
84.42	4.51321
84.64	10.5279
84.86	3.38938
85.08	1.36657
85.3	7.87655
85.52	5.14309
85.74	10.1278
85.96	18.9451
86.18	7.75638
86.4	7.79051
86.62	15.7128
86.84	1.74756
87.06	1.62686
87.28	12.9693
87.5	4.94922
87.72	5.81996
87.94	4.52625
88.16	16.4846
88.38	16.4474
88.6	13.9118
88.82	15.9636
89.04	1.19623
89.26	6.66017
89.48	10.7073
89.7	8.51596
89.92	3.72089
