Measurement: Powder, Xray Data XY Processed
Mineral: Clinofergusonite-(Ce)
Rruff sample: R080102
Ideal chemistry: Ce^3+^Nb^5+^O_4_
Locality: Amherst County, Virginia, USA
Source: Michael Scott
Description: Tan to light brown colored fragment from metamict sample R070300, after heating at T = 1000 C for 20 hours
Diffraction sample description: Powder
Cell parameters: a: 7.645(2) b: 11.0171(5) c: 5.3251(9) alpha: 90 beta: 138.38(1) gamma: 90 volume: 297.89(6) crystal system: monoclinic
x	intensity
5	0
5.22	19.0966
5.44	16.5009
5.66	12.649
5.88	7.14483
6.1	12.2554
6.32	5.26618
6.54	13.3733
6.76	29.7571
6.98	5.59757
7.2	12.7989
7.42	16.5676
7.64	9.46508
7.86	7.16541
8.08	11.8015
8.3	11.4946
8.52	5.00433
8.74	8.27319
8.96	2.66969
9.18	6.51657
9.4	14.4687
9.62	4.53576
9.84	1.35181
10.06	11.1547
10.28	5.01523
10.5	16.6933
10.72	13.9276
10.94	2.6589
11.16	18.2627
11.38	16.653
11.6	14.3608
11.82	13.4495
12.04	21.6017
12.26	16.6541
12.48	21.9594
12.7	24.3674
12.92	13.7544
13.14	9.22669
13.36	13.7911
13.58	1.44037
13.8	3.20507
14.02	19.6618
14.24	5.78082
14.46	14.5948
14.68	16.3368
14.9	1.08087
15.12	3.61851
15.34	6.06043
15.56	1.71656
15.78	18.385
16	7.91766
16.22	10.9718
16.44	25.9999
16.66	11.7351
16.88	1.53705
17.1	13.6608
17.32	11.0363
17.54	19.121
17.76	11.8537
17.98	10.0515
18.2	0.146221
18.42	11.4087
18.64	14.481
18.86	22.9945
19.08	33.0083
19.3	7.16816
19.52	16.5845
19.74	2.15599
19.96	14.2221
20.18	10.3533
20.4	5.46336
20.62	19.5495
20.84	13.5942
21.06	4.22826
21.28	6.75449
21.5	8.78207
21.72	0.059574
21.94	14.7986
22.16	15.1763
22.38	8.44492
22.6	9.92601
22.82	4.24406
23.04	7.55965
23.26	10.0209
23.48	11.7595
23.7	0.30448
23.92	10.4522
24.14	4.59075
24.36	7.64745
24.58	18.1322
24.8	15.4581
25.02	14.3048
25.24	15.0992
25.46	0.842644
25.68	23.6946
25.9	1.92767
26.12	18.9562
26.34	14.6658
26.56	23.1705
26.78	14.5349
27	9.61822
27.22	2.69144
27.44	22.2302
27.66	10.5738
27.88	4.20123
28.1	17.5669
28.32	117.094
28.54	184.403
28.76	72.6504
28.98	5.76794
29.2	3.26889
29.42	7.13693
29.64	46.885
29.86	81.0242
30.08	228.562
30.3	54.7112
30.52	17.386
30.74	8.90929
30.96	7.60586
31.18	11.6379
31.4	15.2423
31.62	17.6457
31.84	1.20767
32.06	2.797
32.28	16.2354
32.5	85.2267
32.72	23.0062
32.94	11.9703
33.16	7.2156
33.38	20.6995
33.6	20.5301
33.82	45.5661
34.04	15.7781
34.26	17.4834
34.48	18.2454
34.7	25.8265
34.92	15.5996
35.14	19.1938
35.36	37.6203
35.58	15.6298
35.8	7.58899
36.02	14.003
36.24	10.3437
36.46	5.30602
36.68	12.1589
36.9	3.17524
37.12	20.789
37.34	23.4581
37.56	5.02453
37.78	6.49421
38	4.1156
38.22	18.8089
38.44	15.1804
38.66	10.9327
38.88	7.19636
39.1	2.92022
39.32	7.5786
39.54	3.5664
39.76	12.824
39.98	11.7355
40.2	6.66474
40.42	15.4232
40.64	5.73699
40.86	12.2542
41.08	5.31012
41.3	22.8284
41.52	14.2725
41.74	12.0674
41.96	6.24962
42.18	6.84352
42.4	9.26574
42.62	3.88723
42.84	10.3385
43.06	10.9884
43.28	12.0221
43.5	10.0742
43.72	19.4289
43.94	6.35222
44.16	12.612
44.38	2.3652
44.6	20.2627
44.82	8.15464
45.04	13.881
45.26	8.41583
45.48	9.03963
45.7	14.765
45.92	9.19408
46.14	22.6174
46.36	8.86307
46.58	3.6852
46.8	2.4779
47.02	13.4391
47.24	7.45456
47.46	44.4458
47.68	73.0766
47.9	27.856
48.12	0.673325
48.34	17.3625
48.56	16.946
48.78	32.4989
49	39.2654
49.22	20.2644
49.44	7.84358
49.66	6.51445
49.88	19.7811
50.1	22.7492
50.32	10.7871
50.54	13.5434
50.76	2.4426
50.98	3.90999
51.2	7.31626
51.42	13.9068
51.64	4.18754
51.86	40.2722
52.08	14.0267
52.3	15.6652
52.52	8.36075
52.74	12.6471
52.96	5.14129
53.18	6.53208
53.4	14.2732
53.62	6.02787
53.84	11.7206
54.06	9.66678
54.28	8.90748
54.5	13.2561
54.72	5.72292
54.94	8.8901
55.16	11.9806
55.38	7.92314
55.6	25.2467
55.82	19.0751
56.04	16.9865
56.26	27.5869
56.48	22.8536
56.7	13.6061
56.92	10.2503
57.14	3.58175
57.36	7.98993
57.58	11.3156
57.8	10.6354
58.02	0.111034
58.24	17.1027
58.46	26.4979
58.68	30.808
58.9	31.3178
59.12	18.6236
59.34	22.9428
59.56	8.46624
59.78	5.84239
60	1.27842
60.22	8.34011
60.44	5.96924
60.66	16.1879
60.88	12.4026
61.1	27.6146
61.32	23.1953
61.54	9.72863
61.76	20.5344
61.98	12.4386
62.2	17.7399
62.42	12.235
62.64	9.96632
62.86	11.4365
63.08	2.18825
63.3	12.9258
63.52	9.47555
63.74	14.8847
63.96	7.25888
64.18	7.18899
64.4	12.9098
64.62	5.19975
64.84	9.21624
65.06	11.4013
65.28	15.1399
65.5	6.88589
65.72	20.0855
65.94	12.9362
66.16	12.0158
66.38	10.0587
66.6	16.3398
66.82	7.81292
67.04	19.6708
67.26	10.6408
67.48	5.44568
67.7	10.6315
67.92	7.56107
68.14	13.5992
68.36	14.1478
68.58	8.24683
68.8	2.41791
69.02	15.4699
69.24	1.45372
69.46	4.58069
69.68	3.57852
69.9	9.43748
70.12	1.46364
70.34	0.664112
70.56	18.2537
70.78	2.01506
71	12.8976
71.22	10.491
71.44	11.5292
71.66	5.53976
71.88	1.56167
72.1	9.54962
72.32	4.74973
72.54	1.67244
72.76	6.17228
72.98	4.88196
73.2	5.04094
73.42	14.0444
73.64	10.0544
73.86	3.8067
74.08	9.2232
74.3	5.83549
74.52	3.09288
74.74	12.833
74.96	18.7102
75.18	12.7588
75.4	3.33904
75.62	9.13531
75.84	6.22621
76.06	13.2461
76.28	5.33155
76.5	8.55418
76.72	9.69874
76.94	4.0605
77.16	0.655239
77.38	14.2521
77.6	5.73003
77.82	8.89602
78.04	11.145
78.26	19.994
78.48	6.90717
78.7	4.14004
78.92	7.86699
79.14	2.08646
79.36	8.2939
79.58	9.80242
79.8	3.09069
80.02	1.66098
80.24	9.84665
80.46	12.1843
80.68	13.6219
80.9	12.8881
81.12	6.26642
81.34	9.55467
81.56	7.9506
81.78	16.6295
82	11.9432
82.22	13.4286
82.44	4.49694
82.66	5.40384
82.88	5.35858
83.1	5.99414
83.32	14.8996
83.54	16.2907
83.76	18.8363
83.98	10.7965
84.2	3.32392
84.42	11.1198
84.64	14.7319
84.86	6.72714
85.08	11.114
85.3	6.88944
85.52	11.3518
85.74	3.42182
85.96	0.560623
86.18	11.5123
86.4	12.4515
86.62	1.39826
86.84	19.0972
87.06	2.4625
87.28	10.307
87.5	6.36942
87.72	11.7741
87.94	14.0387
88.16	10.6167
88.38	18.9738
88.6	11.0351
88.82	10.8368
89.04	6.18825
89.26	9.5257
89.48	3.00971
89.7	13.4532
89.92	5.10398
