Measurement: Powder, Xray Data XY Processed
Mineral: Clinohumite
Rruff sample: R070561
Ideal chemistry: Mg_9_(SiO_4_)_4_F_2_
Locality: Unknown
Source: www.multicolour.com
Description: Brownish orange transparent fragments
Diffraction sample description: Powder
Measured chemistry: (Mg_8.47_Fe_0.23_Ti_0.15_[box]_0.14_Mn_0.01_)_Σ=9_((Si_3.98_Al_0.02_)_Σ=1_O_4_)_4_(F_1.01_(OH)_0.99_)_Σ=2_ ; OH estimated by difference and charge balance
Cell parameters: a: 4.7405(1) b: 10.2439(3) c: 13.6534(4) alpha: 100.883(3) beta: 90 gamma: 90 volume: 651.10(3) crystal system: monoclinic
x	intensity
5	0
5.22	1.61214
5.44	6.19494
5.66	10.5073
5.88	15.1111
6.1	7.28271
6.32	11.946
6.54	17.6527
6.76	5.03978
6.98	15.2236
7.2	4.53359
7.42	6.7006
7.64	0.234299
7.86	2.70351
8.08	2.38387
8.3	8.82319
8.52	1.34665
8.74	17.5633
8.96	10.1663
9.18	6.75785
9.4	14.4976
9.62	4.61442
9.84	6.26147
10.06	9.75618
10.28	9.20442
10.5	6.74815
10.72	7.13777
10.94	1.04021
11.16	15.2992
11.38	2.67537
11.6	14.7219
11.82	10.8366
12.04	13.9198
12.26	11.7492
12.48	10.6764
12.7	7.3997
12.92	8.34014
13.14	2.61269
13.36	12.3316
13.58	4.10737
13.8	8.87287
14.02	4.99338
14.24	7.97429
14.46	1.94874
14.68	0.05911
14.9	0.234067
15.12	8.43628
15.34	10.2001
15.56	8.33082
15.78	9.64142
16	3.25144
16.22	2.4228
16.44	14.4176
16.66	13.4542
16.88	4.34717
17.1	3.52351
17.32	5.47376
17.54	21.6751
17.76	31.1446
17.98	7.38101
18.2	4.36604
18.42	3.97446
18.64	8.22533
18.86	6.13887
19.08	18.0944
19.3	10.0091
19.52	7.49981
19.74	10.623
19.96	75.6418
20.18	1.48629
20.4	10.4449
20.62	3.31044
20.84	14.4265
21.06	4.09013
21.28	26.0442
21.5	2.26754
21.72	16.4591
21.94	10.3256
22.16	2.34199
22.38	17.0426
22.6	11.8583
22.82	9.17508
23.04	73.8968
23.26	0.438604
23.48	1.34878
23.7	1.15241
23.92	18.1592
24.14	143.075
24.36	1.97144
24.58	3.64433
24.8	7.52154
25.02	4.80776
25.24	0.977295
25.46	10.0123
25.68	41.0316
25.9	68.1161
26.12	8.82095
26.34	8.44092
26.56	12.1789
26.78	9.51874
27	3.76454
27.22	3.96478
27.44	39.9367
27.66	131.332
27.88	1.54314
28.1	0.850212
28.32	18.8503
28.54	1.41584
28.76	5.46617
28.98	10.3754
29.2	18.4191
29.42	1.20135
29.64	2.38189
29.86	4.29724
30.08	21.2049
30.3	5.04864
30.52	1.45855
30.74	33.5315
30.96	12.4054
31.18	9.18269
31.4	13.0498
31.62	10.6516
31.84	6.47089
32.06	7.58596
32.28	44.0741
32.5	68.7289
32.72	157.745
32.94	1.68498
33.16	4.6612
33.38	10.7833
33.6	13.4408
33.82	6.00877
34.04	0.516659
34.26	4.06226
34.48	127.106
34.7	17.805
34.92	4.64157
35.14	24.205
35.36	129.244
35.58	22.9381
35.8	161.348
36.02	13.0645
36.24	8.28946
36.46	4.59656
36.68	6.85712
36.9	4.97741
37.12	0.004061
37.34	110.977
37.56	41.4569
37.78	24.2118
38	17.1894
38.22	126.789
38.44	14.9727
38.66	2.6579
38.88	15.2244
39.1	40.8085
39.32	11.5618
39.54	1.37913
39.76	45.8822
39.98	237.09
40.2	38.7117
40.42	0.63501
40.64	9.94464
40.86	13.6296
41.08	10.1226
41.3	7.86247
41.52	2.27262
41.74	0.165424
41.96	41.9477
42.18	12.5126
42.4	10.155
42.62	5.95357
42.84	0.734491
43.06	4.16305
43.28	18.6879
43.5	36.7989
43.72	17.1493
43.94	6.20561
44.16	12.9116
44.38	3.60667
44.6	37.608
44.82	2.15936
45.04	18.6372
45.26	1.94945
45.48	9.85871
45.7	5.64053
45.92	4.68534
46.14	15.6216
46.36	5.40885
46.58	3.24381
46.8	28.7273
47.02	16.6305
47.24	8.65126
47.46	14.4197
47.68	1.65197
47.9	1.15921
48.12	7.85368
48.34	3.97956
48.56	22.4036
48.78	5.45697
49	15.8319
49.22	14.1448
49.44	2.09235
49.66	6.08825
49.88	11.0102
50.1	6.87324
50.32	4.48636
50.54	3.04443
50.76	18.2523
50.98	9.54178
51.2	3.21406
51.42	9.52479
51.64	21.5709
51.86	4.13372
52.08	15.0019
52.3	20.8917
52.52	177.034
52.74	110.112
52.96	8.20303
53.18	12.625
53.4	0.293255
53.62	1.75077
53.84	6.95932
54.06	21.6598
54.28	2.67012
54.5	97.7496
54.72	9.15279
54.94	2.19188
55.16	17.3512
55.38	7.2431
55.6	9.14305
55.82	5.08761
56.04	8.11427
56.26	7.09848
56.48	29.4599
56.7	44.8068
56.92	18.9681
57.14	24.296
57.36	14.5162
57.58	13.6299
57.8	7.49952
58.02	2.68142
58.24	7.90132
58.46	7.95537
58.68	3.09822
58.9	10.0249
59.12	8.58046
59.34	5.09829
59.56	5.43842
59.78	1.68944
60	11.2717
60.22	6.42967
60.44	19.9934
60.66	9.4835
60.88	9.32503
61.1	8.68246
61.32	14.4356
61.54	22.3044
61.76	4.28559
61.98	9.05342
62.2	13.6067
62.42	32.6116
62.64	120.126
62.86	129.67
63.08	27.7299
63.3	2.61006
63.52	7.38398
63.74	11.2492
63.96	3.75136
64.18	7.16998
64.4	4.39431
64.62	5.13812
64.84	8.07129
65.06	16.1652
65.28	13.1523
65.5	9.4193
65.72	6.74393
65.94	6.43117
66.16	13.9172
66.38	7.82226
66.6	10.5984
66.82	36.0847
67.04	23.7372
67.26	17.4245
67.48	9.29734
67.7	14.4181
67.92	4.44296
68.14	6.683
68.36	10.8041
68.58	14.8933
68.8	6.95747
69.02	4.13125
69.24	10.6492
69.46	10.6258
69.68	15.1402
69.9	35.014
70.12	23.0521
70.34	10.2951
70.56	2.43044
70.78	0.532379
71	13.7028
71.22	5.13464
71.44	13.2832
71.66	19.3133
71.88	18.7787
72.1	7.00702
72.32	2.32307
72.54	6.33015
72.76	9.36641
72.98	0.515977
73.2	3.4476
73.42	5.60576
73.64	7.48741
73.86	8.47312
74.08	13.6251
74.3	10.4123
74.52	3.83708
74.74	0.256569
74.96	8.51266
75.18	15.2532
75.4	6.97079
75.62	6.83333
75.84	3.80315
76.06	7.36089
76.28	7.44605
76.5	11.2773
76.72	7.12782
76.94	14.067
77.16	4.13793
77.38	10.3254
77.6	4.47585
77.82	8.71594
78.04	9.34905
78.26	0.697607
78.48	5.17722
78.7	11.1053
78.92	9.53803
79.14	5.98199
79.36	8.17393
79.58	7.2677
79.8	1.19417
80.02	0.166122
80.24	9.97272
80.46	11.2419
80.68	5.95376
80.9	4.84871
81.12	13.8733
81.34	11.7409
81.56	7.57865
81.78	4.68868
82	1.39371
82.22	5.70552
82.44	9.88592
82.66	5.91912
82.88	5.07539
83.1	7.20661
83.32	23.0887
83.54	3.08377
83.76	1.95713
83.98	11.9656
84.2	5.64119
84.42	13.3784
84.64	10.0087
84.86	2.58664
85.08	7.35311
85.3	5.01088
85.52	16.5029
85.74	15.4127
85.96	29.6955
86.18	5.93
86.4	13.9492
86.62	18.2331
86.84	9.63707
87.06	12.3261
87.28	8.43446
87.5	10.8969
87.72	7.24993
87.94	5.94489
88.16	9.25801
88.38	0.774057
88.6	12.6444
88.82	12.3879
89.04	4.66821
89.26	9.53682
89.48	11.4922
89.7	1.29306
89.92	6.29478
