Measurement: Powder, Xray Data XY Processed
Mineral: Cobaltite
Rruff sample: R070372
Ideal chemistry: Co^3+^(AsS)^3-^
Locality: Hakansboda, Vastmanland, Sweden
Source: Royal Ontario Museum
Description: Light grey metallic pyritohedron
Diffraction sample description: Powder, cell parameters are from single crystal
Cell parameters: a: 5.584(2) b: 5.589(1) c: 5.581(2) alpha: 90 beta: 90 gamma: 90 volume: 174.18(5) crystal system: orthorhombic
x	intensity
5	0
5.22	11.4851
5.44	21.4598
5.66	14.0886
5.88	19.6442
6.1	4.54171
6.32	21.6277
6.54	7.59795
6.76	4.99794
6.98	19.166
7.2	9.01264
7.42	7.68098
7.64	41.9302
7.86	3.06923
8.08	22.479
8.3	14.0101
8.52	17.941
8.74	18.8192
8.96	12.7403
9.18	22.3882
9.4	15.5891
9.62	26.9107
9.84	16.6039
10.06	22.7157
10.28	36.4813
10.5	7.55563
10.72	13.1306
10.94	14.5949
11.16	17.7719
11.38	2.97499
11.6	14.8844
11.82	4.28702
12.04	5.15834
12.26	24.0421
12.48	9.92397
12.7	30.9901
12.92	14.4807
13.14	41.847
13.36	43.5517
13.58	14.8212
13.8	12.0681
14.02	23.1211
14.24	16.6947
14.46	17.3939
14.68	27.9799
14.9	37.9682
15.12	27.7462
15.34	10.6662
15.56	38.6497
15.78	17.9736
16	38.9648
16.22	26.5638
16.44	17.9807
16.66	17.6406
16.88	32.9034
17.1	41.3304
17.32	18.1602
17.54	21.985
17.76	25.1705
17.98	15.9539
18.2	27.3197
18.42	0.290329
18.64	4.59431
18.86	41.3353
19.08	47.1404
19.3	16.8193
19.52	17.9912
19.74	13.1287
19.96	14.4386
20.18	9.83029
20.4	21.2611
20.62	4.80878
20.84	28.3231
21.06	4.00919
21.28	28.5259
21.5	37.7211
21.72	24.3892
21.94	23.1684
22.16	23.8545
22.38	35.2086
22.6	42.3251
22.82	23.4855
23.04	25.4391
23.26	36.5628
23.48	28.5878
23.7	49.7543
23.92	24.7827
24.14	47.5404
24.36	44.5946
24.58	21.3341
24.8	31.1966
25.02	26.7527
25.24	12.7746
25.46	27.0845
25.68	42.1414
25.9	41.9796
26.12	28.3933
26.34	31.9631
26.56	44.7402
26.78	44.4158
27	38.6466
27.22	14.3258
27.44	4.13217
27.66	15.9245
27.88	27.2216
28.1	18.1199
28.32	14.9812
28.54	25.3464
28.76	40.5172
28.98	19.3831
29.2	17.1149
29.42	6.44606
29.64	18.53
29.86	28.451
30.08	34.7064
30.3	8.68988
30.52	2.19486
30.74	19.3749
30.96	32.3149
31.18	14.1954
31.4	6.43761
31.62	38.4793
31.84	36.9446
32.06	72.7377
32.28	179.136
32.5	39.3109
32.72	29.3136
32.94	32.366
33.16	5.6486
33.38	31.3308
33.6	44.0428
33.82	31.1823
34.04	24.7963
34.26	22.3192
34.48	26.9911
34.7	13.1615
34.92	16.1835
35.14	22.7554
35.36	24.725
35.58	24.2535
35.8	25.7086
36.02	176.885
36.24	60.8943
36.46	33.2917
36.68	19.8087
36.9	50.6303
37.12	9.63835
37.34	37.1435
37.56	21.6655
37.78	39.8893
38	40.5135
38.22	63.8278
38.44	21.7591
38.66	42.4911
38.88	14.8308
39.1	40.1165
39.32	4.76616
39.54	57.026
39.76	253.442
39.98	17.6452
40.2	56.5032
40.42	4.92277
40.64	43.1553
40.86	9.78148
41.08	26.5803
41.3	24.4537
41.52	2.36192
41.74	6.71294
41.96	3.84592
42.18	28.9207
42.4	12.638
42.62	52.1317
42.84	27.2473
43.06	15.3963
43.28	61.4396
43.5	33.8394
43.72	48.924
43.94	4.76788
44.16	46.6874
44.38	35.7314
44.6	30.5365
44.82	42.7068
45.04	35.1965
45.26	21.9216
45.48	28.3247
45.7	7.59508
45.92	77.9966
46.14	132.639
46.36	33.053
46.58	7.95506
46.8	15.8879
47.02	46.1729
47.24	17.4071
47.46	27.3053
47.68	9.11514
47.9	38.4142
48.12	7.28258
48.34	25.0277
48.56	0.505646
48.78	12.4637
49	36.0092
49.22	11.5733
49.44	52.0777
49.66	10.0178
49.88	51.4365
50.1	53.1232
50.32	31.7846
50.54	10.5377
50.76	39.2991
50.98	34.0261
51.2	40.3944
51.42	15.9534
51.64	6.24715
51.86	43.7732
52.08	27.9984
52.3	25.3813
52.52	10.0218
52.74	6.62859
52.96	22.4637
53.18	30.1186
53.4	24.485
53.62	26.3269
53.84	13.9638
54.06	12.031
54.28	34.4957
54.5	81.0031
54.72	298.284
54.94	32.0981
55.16	6.6617
55.38	8.6078
55.6	14.8855
55.82	45.4378
56.04	21.2407
56.26	6.77606
56.48	5.41103
56.7	16.6355
56.92	46.86
57.14	28.5308
57.36	42.1624
57.58	8.56055
57.8	26.622
58.02	40.4854
58.24	43.0266
58.46	35.2424
58.68	24.6932
58.9	16.9187
59.12	44.2797
59.34	23.6161
59.56	24.5875
59.78	49.7054
60	58.3889
60.22	42.0669
60.44	7.22284
60.66	3.00122
60.88	49.155
61.1	58.1232
61.32	12.3193
61.54	13.2669
61.76	28.9381
61.98	20.284
62.2	39.5195
62.42	189.227
62.64	40.6611
62.86	41.6686
63.08	18.4749
63.3	10.9312
63.52	31.7382
63.74	41.531
63.96	52.1623
64.18	31.8308
64.4	31.2365
64.62	9.24017
64.84	57.2633
65.06	1.30258
65.28	27.5802
65.5	32.5795
65.72	18.9373
65.94	14.9741
66.16	43.9152
66.38	30.154
66.6	32.1251
66.82	33.1198
67.04	29.9895
67.26	12.3364
67.48	37.4508
67.7	7.03805
67.92	27.3297
68.14	21.3428
68.36	43.9475
68.58	14.6682
68.8	35.4624
69.02	50.5913
69.24	21.5323
69.46	46.1365
69.68	42.9731
69.9	41.4085
70.12	2.17584
70.34	7.78786
70.56	11.2323
70.78	30.9053
71	26.7859
71.22	2.02296
71.44	21.0031
71.66	14.3114
71.88	25.0102
72.1	48.2203
72.32	24.2718
72.54	22.1795
72.76	34.8136
72.98	37.9301
73.2	6.00613
73.42	2.63635
73.64	14.9357
73.86	17.183
74.08	13.9684
74.3	27.8349
74.52	36.1487
74.74	35.6959
74.96	36.683
75.18	15.5137
75.4	21.8132
75.62	26.4453
75.84	15.1848
76.06	25.3177
76.28	4.6772
76.5	35.4671
76.72	63.7546
76.94	4.35794
77.16	42.064
77.38	29.1254
77.6	23.0418
77.82	23.1279
78.04	25.1046
78.26	37.7081
78.48	0.935242
78.7	82.1595
78.92	37.4854
79.14	13.0764
79.36	22.3174
79.58	27.273
79.8	25.344
80.02	35.1677
80.24	47.129
80.46	24.6554
80.68	67.4312
80.9	35.105
81.12	26.8185
81.34	20.9424
81.56	18.3161
81.78	12.825
82	26.5291
82.22	22.9755
82.44	35.8505
82.66	11.9449
82.88	24.2373
83.1	23.1336
83.32	16.3043
83.54	2.23701
83.76	22.7793
83.98	31.8786
84.2	23.1972
84.42	31.2612
84.64	45.5975
84.86	49.4049
85.08	49.6062
85.3	53.8153
85.52	26.9494
85.74	44.753
85.96	12.6105
86.18	28.8146
86.4	32.6692
86.62	30.9121
86.84	21.3222
87.06	40.7753
87.28	4.495
87.5	7.06389
87.72	0.817322
87.94	46.4053
88.16	23.168
88.38	42.0142
88.6	4.07024
88.82	7.03084
89.04	41.3334
89.26	31.2465
89.48	54.4965
89.7	38.1885
89.92	31.3936
