Measurement: Powder, Xray Data XY Processed
Mineral: Cobaltite
Rruff sample: R060907
Ideal chemistry: Co^3+^(AsS)^3-^
Locality: Espanola, Ontario, Canada
Source: Royal Ontario Museum
Description: Group of sharp metallic cubes with a thin surface alteration, broken crystals have fresher surfaces.
Diffraction sample description: Powder
Measured chemistry: (Co_0.55_Fe_0.24_Ni_0.21_)_Î£=1_As_0.94_S_1.06_
Cell parameters: a: 5.5935(3) b: 5.5935(3) c: 5.5935(3) alpha: 90 beta: 90 gamma: 90 volume: 175.00(3) crystal system: cubic
x	intensity
5	0
5.22	10.1852
5.44	16.5962
5.66	8.99319
5.88	8.89775
6.1	26.4949
6.32	15.3751
6.54	13.6947
6.76	22.1833
6.98	13.2674
7.2	27.1732
7.42	11.9891
7.64	8.31801
7.86	7.62674
8.08	10.7004
8.3	11.7648
8.52	14.1554
8.74	15.3899
8.96	4.54658
9.18	5.97117
9.4	12.7096
9.62	6.84339
9.84	6.42984
10.06	10.3689
10.28	20.2018
10.5	1.99527
10.72	9.65949
10.94	18.6924
11.16	6.01146
11.38	20.8921
11.6	12.5541
11.82	16.217
12.04	9.11955
12.26	21.3511
12.48	12.6575
12.7	0.797512
12.92	18.1545
13.14	1.12332
13.36	5.71341
13.58	14.177
13.8	4.74958
14.02	17.7837
14.24	6.57871
14.46	16.8565
14.68	10.3785
14.9	0.660641
15.12	10.8367
15.34	6.99418
15.56	9.67332
15.78	7.13097
16	5.04586
16.22	9.8008
16.44	13.8407
16.66	17.6984
16.88	19.5066
17.1	7.32252
17.32	9.19718
17.54	14.2083
17.76	6.40626
17.98	9.82642
18.2	22.6365
18.42	3.63682
18.64	10.044
18.86	7.42286
19.08	21.9588
19.3	5.57249
19.52	12.1887
19.74	31.3422
19.96	9.76047
20.18	8.48281
20.4	12.4013
20.62	5.75436
20.84	21.35
21.06	18.5171
21.28	16.2913
21.5	18.8814
21.72	16.8994
21.94	3.63964
22.16	4.19426
22.38	18.3425
22.6	28.5882
22.82	4.08079
23.04	0.895424
23.26	12.0082
23.48	5.45212
23.7	5.73503
23.92	12.1195
24.14	12.0146
24.36	12.8401
24.58	8.48196
24.8	2.99819
25.02	0.94693
25.24	9.99544
25.46	21.6584
25.68	11.0409
25.9	9.77841
26.12	14.6614
26.34	13.7774
26.56	11.2791
26.78	8.80989
27	17.5022
27.22	5.25426
27.44	3.81905
27.66	35.7357
27.88	1.2941
28.1	17.6758
28.32	8.16183
28.54	9.80512
28.76	13.4012
28.98	15.1277
29.2	21.8151
29.42	1.54605
29.64	22.4929
29.86	22.1091
30.08	8.65245
30.3	10.0763
30.52	9.21296
30.74	19.944
30.96	24.7211
31.18	16.1806
31.4	10.1426
31.62	3.75691
31.84	18.364
32.06	175.321
32.28	23.3531
32.5	5.11322
32.72	8.45058
32.94	24.0984
33.16	14.4371
33.38	4.00696
33.6	2.04151
33.82	14.3059
34.04	14.8959
34.26	33.5833
34.48	15.6278
34.7	2.74859
34.92	13.5704
35.14	23.4694
35.36	4.85762
35.58	23.9169
35.8	39.5337
36.02	165.281
36.24	17.1964
36.46	20.5916
36.68	17.5191
36.9	14.403
37.12	2.54559
37.34	15.7269
37.56	17.9315
37.78	8.1318
38	16.574
38.22	23.3226
38.44	30.095
38.66	4.76599
38.88	20.3856
39.1	23.1507
39.32	28.6892
39.54	138.804
39.76	31.4207
39.98	19.7448
40.2	20.5687
40.42	5.91993
40.64	0.187805
40.86	11.715
41.08	18.162
41.3	37.2295
41.52	21.2746
41.74	20.8443
41.96	17.6569
42.18	20.0784
42.4	8.3565
42.62	10.6162
42.84	8.77943
43.06	26.8885
43.28	6.46861
43.5	2.04684
43.72	7.30286
43.94	26.796
44.16	9.29691
44.38	16.8449
44.6	11.2432
44.82	8.48653
45.04	2.17107
45.26	21.6199
45.48	3.99503
45.7	1.75147
45.92	68.08
46.14	11.9712
46.36	3.81161
46.58	27.4696
46.8	18.7698
47.02	12.8176
47.24	22.1637
47.46	6.08702
47.68	0.747551
47.9	15.4973
48.12	10.5006
48.34	28.3313
48.56	20.7902
48.78	24.387
49	14.5135
49.22	17.3736
49.44	10.6152
49.66	22.2057
49.88	21.1523
50.1	17.0995
50.32	29.1068
50.54	3.84808
50.76	7.87091
50.98	8.60568
51.2	16.4399
51.42	15.2984
51.64	4.03782
51.86	19.5196
52.08	18.5857
52.3	9.28917
52.52	16.9225
52.74	18.1923
52.96	10.1018
53.18	20.4471
53.4	23.5305
53.62	7.11241
53.84	9.19661
54.06	17.8497
54.28	46.2858
54.5	129.429
54.72	11.8751
54.94	20.8344
55.16	19.2839
55.38	31.6656
55.6	9.99135
55.82	24.268
56.04	2.36514
56.26	22.2099
56.48	20.7017
56.7	16.8957
56.92	18.8353
57.14	23.4115
57.36	23.4251
57.58	11.8649
57.8	22.0408
58.02	1.19674
58.24	21.0091
58.46	26.9039
58.68	14.7119
58.9	17.2219
59.12	21.4979
59.34	16.9713
59.56	54.5671
59.78	26.4325
60	29.3891
60.22	9.12792
60.44	34.4784
60.66	29.0065
60.88	4.4066
61.1	15.8425
61.32	24.2739
61.54	7.58337
61.76	17.6239
61.98	31.2007
62.2	52.3263
62.42	17.3605
62.64	12.3353
62.86	14.8308
63.08	4.64884
63.3	23.1403
63.52	20.0074
63.74	6.79141
63.96	26.7519
64.18	19.2946
64.4	12.7338
64.62	16.8342
64.84	6.64509
65.06	20.807
65.28	32.4642
65.5	12.9239
65.72	22.9344
65.94	22.4367
66.16	18.7009
66.38	14.9849
66.6	7.34866
66.82	25.8154
67.04	17.4306
67.26	27.8257
67.48	27.7135
67.7	20.4832
67.92	0.416092
68.14	19.2501
68.36	13.8814
68.58	37.2736
68.8	23.2431
69.02	5.59441
69.24	26.5459
69.46	25.8138
69.68	9.52776
69.9	38.2721
70.12	24.1811
70.34	31.8463
70.56	30.6757
70.78	9.24335
71	18.7457
71.22	31.9897
71.44	33.8916
71.66	36.1087
71.88	28.4838
72.1	3.56479
72.32	8.49081
72.54	20.2727
72.76	15.8315
72.98	5.99201
73.2	22.2989
73.42	26.434
73.64	21.2776
73.86	33.2717
74.08	23.7248
74.3	1.63166
74.52	21.7867
74.74	2.11535
74.96	16.8823
75.18	21.6541
75.4	21.4806
75.62	19.2729
75.84	0.747452
76.06	37.8902
76.28	2.57743
76.5	18.982
76.72	6.18722
76.94	21.0297
77.16	36.3521
77.38	16.1986
77.6	2.43729
77.82	30.8481
78.04	6.8175
78.26	22.4459
78.48	32.4311
78.7	21.8357
78.92	14.9161
79.14	24.7054
79.36	30.5127
79.58	5.52039
79.8	21.5733
80.02	22.646
80.24	15.572
80.46	17.6367
80.68	27.1059
80.9	19.2754
81.12	17.5255
81.34	24.4415
81.56	24.1668
81.78	29.8892
82	16.0285
82.22	29.0275
82.44	33.8742
82.66	20.793
82.88	21.3451
83.1	10.6805
83.32	5.03995
83.54	36.6765
83.76	9.98911
83.98	15.5335
84.2	1.31304
84.42	36.8587
84.64	3.17225
84.86	11.0628
85.08	5.56074
85.3	33.4779
85.52	15.8866
85.74	24.9537
85.96	1.14077
86.18	22.3397
86.4	20.1411
86.62	28.1374
86.84	18.6641
87.06	45.2667
87.28	34.7136
87.5	41.0232
87.72	18.0009
87.94	34.6734
88.16	42.188
88.38	3.80977
88.6	14.6408
88.82	26.1765
89.04	15.9675
89.26	44.0987
89.48	15.5356
89.7	9.99825
89.92	19.4561
