Measurement: Powder, Xray Data XY Processed
Mineral: Colemanite
Rruff sample: R050102
Ideal chemistry: CaB_3_O_4_(OH)_3_H_2_O
Locality: Kramer deposit, Boron, Kern County, California, USA
Source: Rock Currier
Description: Colorless prismatic to tabular crystals
Diffraction sample description: Powder
Measured chemistry: Ca_1.00_B_3.00_O_4_(OH)_3_Â·H_2_O ; trace amounts of Na; B assumed by stoichiometry and charge balance.
Cell parameters: a: 8.7231(8) b: 11.2564(6) c: 6.0973(4) alpha: 90 beta: 110.137(6) gamma: 90 volume: 562.10(5) crystal system: monoclinic
x	intensity
5	0
5.22	7.395
5.44	12.479
5.66	3.45
5.88	13.339
6.1	12.39
6.32	11.782
6.54	3.964
6.76	12.22
6.98	11.685
7.2	0.277
7.42	5.95
7.64	4.467
7.86	3.113
8.08	1.436
8.3	3.054
8.52	1.524
8.74	5.72
8.96	2.896
9.18	6.994
9.4	7.144
9.62	3.496
9.84	18.381
10.06	8.437
10.28	9.494
10.5	3.672
10.72	10.773
10.94	1.058
11.16	5.431
11.38	13.602
11.6	3.889
11.82	14.706
12.04	4.829
12.26	1.973
12.48	2.243
12.7	11.273
12.92	8.418
13.14	4.441
13.36	9.705
13.58	8.493
13.8	11.535
14.02	2.488
14.24	13.401
14.46	2.128
14.68	3.881
14.9	0.415
15.12	11.663
15.34	2.644
15.56	52.578
15.78	681.189
16	19.109
16.22	6.101
16.44	3.192
16.66	3.399
16.88	8.912
17.1	7.284
17.32	13.431
17.54	5.846
17.76	2.933
17.98	4.397
18.2	0.785
18.42	4.93
18.64	2.158
18.86	4.359
19.08	18.477
19.3	5.29
19.52	3.239
19.74	4.494
19.96	5.407
20.18	2.605
20.4	0.517
20.62	1.103
20.84	6.043
21.06	3.849
21.28	4.632
21.5	5.495
21.72	11.542
21.94	4.348
22.16	192.904
22.38	12.723
22.6	4.797
22.82	5.685
23.04	13.825
23.26	23.871
23.48	2.015
23.7	0.5
23.92	2.63
24.14	1.775
24.36	0.988
24.58	4.182
24.8	10.43
25.02	5.074
25.24	1.962
25.46	8.114
25.68	17.123
25.9	0.977
26.12	5.488
26.34	5.146
26.56	3.186
26.78	11.006
27	16.012
27.22	18.699
27.44	4.587
27.66	5.462
27.88	11.254
28.1	9.483
28.32	17.504
28.54	352.542
28.76	18.471
28.98	2.819
29.2	3.074
29.42	11.195
29.64	9.252
29.86	4.114
30.08	3.927
30.3	2.576
30.52	2.957
30.74	2.588
30.96	59.255
31.18	11.89
31.4	5.209
31.62	1.928
31.84	162.633
32.06	33.986
32.28	7.201
32.5	73.202
32.72	3.505
32.94	0.208
33.16	3.571
33.38	4.725
33.6	9.119
33.82	18.208
34.04	0.119
34.26	2.07
34.48	8.665
34.7	2.329
34.92	5.974
35.14	288.496
35.36	77.691
35.58	162.548
35.8	0.707
36.02	8.084
36.24	0.538
36.46	4.577
36.68	4.628
36.9	4.685
37.12	7.638
37.34	9.844
37.56	80.431
37.78	11.075
38	9.002
38.22	2.839
38.44	0.619
38.66	6.308
38.88	23.347
39.1	17.822
39.32	14.865
39.54	3.09
39.76	9.998
39.98	1.166
40.2	6.431
40.42	3.491
40.64	1.738
40.86	19.756
41.08	7.54
41.3	4.374
41.52	5.602
41.74	14.862
41.96	9.401
42.18	53.899
42.4	5.244
42.62	3.661
42.84	2.119
43.06	7.341
43.28	78.667
43.5	0.206
43.72	38.62
43.94	5.112
44.16	12.992
44.38	31.557
44.6	2.497
44.82	2.334
45.04	117.224
45.26	42.145
45.48	2.223
45.7	12.848
45.92	19.995
46.14	115.429
46.36	85.999
46.58	6.877
46.8	1.097
47.02	4.484
47.24	2.722
47.46	6.935
47.68	0.132
47.9	20.614
48.12	12.77
48.34	14.929
48.56	15.347
48.78	11.597
49	8.483
49.22	4.915
49.44	8.046
49.66	7.323
49.88	18.578
50.1	4.773
50.32	4.752
50.54	11.731
50.76	5.074
50.98	9.324
51.2	24.633
51.42	23.858
51.64	3.677
51.86	9.782
52.08	2.786
52.3	1.224
52.52	5.784
52.74	11.784
52.96	7.817
53.18	12.702
53.4	4.796
53.62	1.682
53.84	26.71
54.06	6.788
54.28	0.873
54.5	0.959
54.72	3.097
54.94	3.333
55.16	7.548
55.38	36.666
55.6	37.525
55.82	3.215
56.04	11.218
56.26	2.679
56.48	5.814
56.7	21.16
56.92	2.399
57.14	0.238
57.36	2.321
57.58	8.231
57.8	9.219
58.02	3.193
58.24	4.154
58.46	10.178
58.68	11.878
58.9	16.023
59.12	6.805
59.34	3.828
59.56	0.796
59.78	7.227
60	1.271
60.22	7.545
60.44	2.635
60.66	5.584
60.88	5.343
61.1	8.29
61.32	7.141
61.54	4.022
61.76	1.501
61.98	7.265
62.2	2.165
62.42	4.199
62.64	4.078
62.86	1.999
63.08	15.163
63.3	1.257
63.52	4.218
63.74	0.289
63.96	6.51
64.18	2.408
64.4	6.662
64.62	9.764
64.84	1.01
65.06	1.797
65.28	5.891
65.5	5.698
65.72	5.632
65.94	3.756
66.16	7.671
66.38	6.721
66.6	6.681
66.82	12.735
67.04	2.52
67.26	7.363
67.48	2.508
67.7	2.384
67.92	7.611
68.14	0.379
68.36	5.681
68.58	5.58
68.8	6.323
69.02	0.321
69.24	1.235
69.46	2.291
69.68	16.28
69.9	0.177
70.12	16.401
70.34	3.309
70.56	4.4
70.78	9.339
71	14.024
71.22	9.407
71.44	1.667
71.66	1.949
71.88	2.222
72.1	1.589
72.32	4.899
72.54	6.923
72.76	2
72.98	6.213
73.2	4.312
73.42	2.949
73.64	3.788
73.86	7.767
74.08	8.587
74.3	5.38
74.52	4.314
74.74	7.14
74.96	5.04
75.18	13
75.4	0.662
75.62	10.593
75.84	4.536
76.06	2.43
76.28	1.736
76.5	0.166
76.72	4.354
76.94	1.138
77.16	14.02
77.38	6.082
77.6	6.006
77.82	0.937
78.04	3.148
78.26	9.291
78.48	22.481
78.7	9.646
78.92	14.834
79.14	5.694
79.36	2.723
79.58	7.846
79.8	2.775
80.02	0.22
80.24	11.762
80.46	3.669
80.68	3.52
80.9	1.613
81.12	1.541
81.34	0.77
81.56	10.015
81.78	8.12
82	2.155
82.22	11.142
82.44	5.104
82.66	2.128
82.88	9.946
83.1	0.041
83.32	17.706
83.54	14.444
83.76	0.737
83.98	2.875
84.2	2.72
84.42	7.614
84.64	15.762
84.86	8.915
85.08	5.005
85.3	2.262
85.52	4.384
85.74	1.553
85.96	1.193
86.18	1.839
86.4	0.988
86.62	3.144
86.84	8.185
87.06	2.337
87.28	6.431
87.5	4.514
87.72	8.39
87.94	6.414
88.16	1.641
88.38	1.712
88.6	3.042
88.82	6.132
89.04	8.4
89.26	5.44
89.48	4.63
89.7	5.768
89.92	9.185
