Measurement: Powder, Xray Data XY Processed
Mineral: Columbite-(Fe)
Rruff sample: R050348
Ideal chemistry: Fe^2+^Nb^5+^_2_O_6_
Locality: Lord Hill mine, Stoneham, Oxford County, Maine, USA
Source: California Institute of Technology
Description: Black fragment
Diffraction sample description: Powder
Measured chemistry: (Fe^2+^_0.69_Mn^2+^_0.30_Ti_0.01_)(Nb_0.89_Ta_0.10_Ti_0.01_)_2_O_6_
Cell parameters: a: 14.239(2) b: 5.7284(3) c: 5.0984(5) alpha: 90. beta: 90. gamma: 90. volume: 415.87(4) crystal system: orthorhombic
x	intensity
5	0
5.22	19.3249
5.44	9.67899
5.66	8.22999
5.88	6.94108
6.1	3.74032
6.32	13.2427
6.54	12.9471
6.76	21.9198
6.98	11.5338
7.2	9.5456
7.42	4.37467
7.64	0.664129
7.86	2.24898
8.08	8.10669
8.3	2.61481
8.52	1.85852
8.74	3.99569
8.96	7.27583
9.18	1.52729
9.4	3.23942
9.62	18.7295
9.84	5.74961
10.06	20.1566
10.28	13.8809
10.5	8.34369
10.72	8.51696
10.94	2.09625
11.16	11.5678
11.38	5.98922
11.6	7.39876
11.82	13.0413
12.04	6.3141
12.26	3.39505
12.48	20.1481
12.7	1.6468
12.92	6.41949
13.14	14.2796
13.36	1.24112
13.58	11.4358
13.8	12.5381
14.02	2.96572
14.24	6.78349
14.46	4.36435
14.68	14.4449
14.9	7.51028
15.12	12.8803
15.34	4.13426
15.56	8.12559
15.78	11.0365
16	0.881926
16.22	3.57758
16.44	10.0312
16.66	16.6479
16.88	15.635
17.1	12.2388
17.32	0.078123
17.54	2.72545
17.76	14.0918
17.98	0.881615
18.2	4.85284
18.42	0.329668
18.64	14.643
18.86	0.954107
19.08	5.60537
19.3	18.7104
19.52	20.8965
19.74	15.0801
19.96	18.0281
20.18	9.57382
20.4	6.84566
20.62	12.2069
20.84	16.1313
21.06	14.1422
21.28	4.86313
21.5	5.45483
21.72	5.84085
21.94	15.8232
22.16	9.30286
22.38	9.88521
22.6	8.93483
22.82	7.44273
23.04	5.45668
23.26	11.8526
23.48	5.17737
23.7	14.2978
23.92	3.95111
24.14	21.1934
24.36	247.56
24.58	31.4292
24.8	4.47659
25.02	18.7854
25.24	4.65041
25.46	7.85414
25.68	12.1381
25.9	2.45852
26.12	1.73378
26.34	0.285549
26.56	6.0583
26.78	35.4265
27	8.38964
27.22	15.6106
27.44	0.480698
27.66	11.5055
27.88	1.36048
28.1	10.9473
28.32	19.5227
28.54	16.3778
28.76	10.2824
28.98	26.773
29.2	24.6463
29.42	5.66288
29.64	8.99131
29.86	43.1468
30.08	604.279
30.3	99.7537
30.52	25.592
30.74	4.15304
30.96	1.78433
31.18	26.7162
31.4	19.0166
31.62	5.54514
31.84	4.28444
32.06	14.3758
32.28	8.23882
32.5	1.21761
32.72	16.711
32.94	11.2198
33.16	11.5642
33.38	5.01368
33.6	6.54415
33.82	17.2866
34.04	1.54734
34.26	3.61323
34.48	7.7296
34.7	10.0069
34.92	4.2276
35.14	21.8888
35.36	25.4761
35.58	13.9459
35.8	28.7592
36.02	97.97
36.24	16.8082
36.46	8.22322
36.68	13.0878
36.9	0.260735
37.12	8.55681
37.34	11.3493
37.56	10.2482
37.78	28.9385
38	37.8385
38.22	10.8178
38.44	8.45071
38.66	9.32579
38.88	13.2839
39.1	8.10442
39.32	6.95538
39.54	14.6975
39.76	14.4446
39.98	13.9717
40.2	19.7266
40.42	16.2508
40.64	1.2336
40.86	50.315
41.08	17.8323
41.3	9.00051
41.52	9.65077
41.74	10.7058
41.96	8.63685
42.18	5.5541
42.4	8.4083
42.62	5.64039
42.84	5.9228
43.06	10.3985
43.28	64.371
43.5	23.0674
43.72	0.010784
43.94	12.8177
44.16	8.14814
44.38	12.5463
44.6	12.8156
44.82	7.24484
45.04	5.50709
45.26	6.28085
45.48	10.2876
45.7	0.436245
45.92	4.63984
46.14	13.3189
46.36	10.1528
46.58	11.5655
46.8	7.30658
47.02	6.98348
47.24	24.0667
47.46	6.81192
47.68	30.3999
47.9	63.3942
48.12	7.79234
48.34	8.64638
48.56	14.8468
48.78	17.378
49	1.16318
49.22	0.540569
49.44	7.38593
49.66	11.7779
49.88	40.9413
50.1	33.1905
50.32	5.41523
50.54	1.87607
50.76	5.03247
50.98	5.10759
51.2	0.312561
51.42	28.0605
51.64	89.6881
51.86	14.1009
52.08	5.1735
52.3	4.06614
52.52	10.8662
52.74	68.3763
52.96	27.1915
53.18	79.7551
53.4	87.004
53.62	17.6696
53.84	5.56002
54.06	19.6875
54.28	3.93424
54.5	9.14996
54.72	2.1531
54.94	14.0435
55.16	8.66149
55.38	15.1086
55.6	0.359896
55.82	0.423767
56.04	1.50223
56.26	10.8502
56.48	5.92175
56.7	3.22011
56.92	17.1806
57.14	23.1018
57.36	6.45734
57.58	28.8523
57.8	11.434
58.02	24.3054
58.24	16.616
58.46	6.38876
58.68	19.9223
58.9	12.4406
59.12	4.51805
59.34	9.86472
59.56	2.26476
59.78	9.34314
60	36.2935
60.22	50.9914
60.44	25.4642
60.66	16.2151
60.88	12.5933
61.1	15.0917
61.32	5.09683
61.54	12.8628
61.76	1.31718
61.98	2.18864
62.2	2.0956
62.42	18.9139
62.64	17.1144
62.86	5.51253
63.08	21.7147
63.3	3.12565
63.52	26.5006
63.74	75.9817
63.96	132.058
64.18	40.9069
64.4	9.35227
64.62	4.81724
64.84	1.3965
65.06	8.69375
65.28	2.81594
65.5	2.5298
65.72	8.77624
65.94	11.4344
66.16	9.13636
66.38	7.92077
66.6	0.023321
66.82	12.5395
67.04	13.6224
67.26	3.5404
67.48	12.8056
67.7	1.51438
67.92	14.1734
68.14	11.518
68.36	19.6083
68.58	8.83833
68.8	0.525948
69.02	24.0952
69.24	4.28242
69.46	15.5504
69.68	12.2933
69.9	5.37255
70.12	4.45088
70.34	11.2076
70.56	6.19355
70.78	4.08974
71	6.01977
71.22	5.99017
71.44	5.39586
71.66	15.4376
71.88	3.29609
72.1	13.4726
72.32	8.60465
72.54	8.17086
72.76	8.1896
72.98	16.2349
73.2	24.1597
73.42	1.97798
73.64	8.35825
73.86	1.56911
74.08	4.50063
74.3	19.0758
74.52	8.25654
74.74	22.9898
74.96	12.254
75.18	5.2513
75.4	7.89944
75.62	19.836
75.84	10.5985
76.06	12.0985
76.28	2.17257
76.5	25.1863
76.72	21.9767
76.94	7.90398
77.16	16.2726
77.38	7.82456
77.6	12.5848
77.82	11.6312
78.04	2.55023
78.26	14.3721
78.48	10.0908
78.7	21.7618
78.92	0.558109
79.14	6.62437
79.36	7.19105
79.58	5.45706
79.8	6.24153
80.02	8.16868
80.24	14.2399
80.46	22.6866
80.68	26.5267
80.9	22.8016
81.12	20.5262
81.34	17.9881
81.56	16.6502
81.78	2.60312
82	8.33336
82.22	6.86855
82.44	5.9034
82.66	13.5557
82.88	15.0361
83.1	23.3318
83.32	9.50085
83.54	13.4991
83.76	6.62861
83.98	8.75101
84.2	7.09566
84.42	14.6381
84.64	4.24067
84.86	5.09422
85.08	10.2512
85.3	7.20816
85.52	12.7784
85.74	21.3262
85.96	7.15125
86.18	3.40703
86.4	11.6542
86.62	17.5741
86.84	16.9328
87.06	11.3435
87.28	9.25765
87.5	5.55002
87.72	1.06219
87.94	2.08294
88.16	2.68345
88.38	20.465
88.6	2.61172
88.82	6.56951
89.04	30.4201
89.26	20.2669
89.48	26.5248
89.7	1.30978
89.92	20.7321
