Measurement: Powder, Xray Data XY Processed
Mineral: Columbite-(Fe)
Rruff sample: R070161
Ideal chemistry: Fe^2+^Nb^5+^_2_O_6_
Locality: Tveit mine, Iveland, Setesdal Valley, Aust-Agder, Norway
Source: James Shigley
Description: Black vitreous dense prismatic crystal
Diffraction sample description: Powder
Cell parameters: a: 5.7203(8) b: 4.7474(9) c: 5.0820(8) alpha: 90 beta: 90 gamma: 90 volume: 138.01(2) crystal system: orthorhombic
x	intensity
5	0
5.22	5.60017
5.44	5.83868
5.66	2.38413
5.88	2.79479
6.1	5.03812
6.32	34.1508
6.54	26.1601
6.76	6.0918
6.98	10.4483
7.2	4.66067
7.42	15.075
7.64	19.6995
7.86	9.87041
8.08	7.4192
8.3	19.9516
8.52	25.3692
8.74	4.71322
8.96	12.9289
9.18	11.6157
9.4	9.48704
9.62	13.2456
9.84	9.29482
10.06	1.91407
10.28	4.37638
10.5	12.2502
10.72	4.13901
10.94	2.11721
11.16	11.0463
11.38	8.0509
11.6	8.74621
11.82	10.6644
12.04	22.465
12.26	1.06942
12.48	10.9885
12.7	15.4448
12.92	12.4026
13.14	3.24182
13.36	3.81389
13.58	4.94623
13.8	4.46506
14.02	7.33679
14.24	2.4635
14.46	19.2229
14.68	15.9369
14.9	16.1217
15.12	8.92572
15.34	11.0573
15.56	3.84358
15.78	14.1134
16	6.33502
16.22	15.5374
16.44	9.45953
16.66	2.46498
16.88	3.4417
17.1	11.3962
17.32	9.86205
17.54	7.66985
17.76	18.8466
17.98	7.21795
18.2	18.9912
18.42	10.7642
18.64	11.7555
18.86	9.89476
19.08	13.2454
19.3	13.2769
19.52	11.0709
19.74	5.19806
19.96	6.24382
20.18	13.0066
20.4	12.377
20.62	1.41376
20.84	13.7578
21.06	11.7064
21.28	19.44
21.5	15.5841
21.72	3.49968
21.94	1.0478
22.16	12.2971
22.38	10.4765
22.6	0.776726
22.82	7.81008
23.04	14.3142
23.26	3.58455
23.48	10.7425
23.7	17.9592
23.92	22.6223
24.14	18.78
24.36	150.937
24.58	13.234
24.8	20.5345
25.02	17.1965
25.24	2.67385
25.46	7.23264
25.68	10.3529
25.9	11.4201
26.12	11.7459
26.34	7.42316
26.56	24.5883
26.78	30.0453
27	3.51916
27.22	24.6872
27.44	20.2477
27.66	15.481
27.88	0.84581
28.1	13.563
28.32	7.2178
28.54	2.87868
28.76	12.954
28.98	14.1688
29.2	17.3462
29.42	10.8103
29.64	25.2133
29.86	22.3565
30.08	243.428
30.3	28.8018
30.52	30.2722
30.74	12.4767
30.96	6.92281
31.18	17.5363
31.4	16.734
31.62	23.8128
31.84	9.31995
32.06	9.74845
32.28	13.0429
32.5	7.14613
32.72	8.7504
32.94	9.84421
33.16	16.1389
33.38	9.00461
33.6	0.855194
33.82	2.72694
34.04	3.53035
34.26	16.9487
34.48	14.8359
34.7	6.36152
34.92	4.12173
35.14	7.45821
35.36	24.2576
35.58	1.17394
35.8	8.7335
36.02	36.7114
36.24	13.2915
36.46	9.98993
36.68	4.95995
36.9	4.32885
37.12	12.9442
37.34	5.28649
37.56	12.9502
37.78	9.45084
38	18.7688
38.22	12.4623
38.44	21.1776
38.66	29.2296
38.88	20.4468
39.1	10.392
39.32	14.5967
39.54	7.69111
39.76	9.44196
39.98	21.2902
40.2	7.12461
40.42	9.96416
40.64	17.7333
40.86	11.3734
41.08	27.9102
41.3	14.6705
41.52	9.34743
41.74	1.92029
41.96	10.7729
42.18	10.9355
42.4	15.7749
42.62	24.6168
42.84	5.47604
43.06	11.3717
43.28	17.2012
43.5	26.0808
43.72	6.1527
43.94	13.2439
44.16	9.28022
44.38	9.38067
44.6	15.3763
44.82	9.7982
45.04	12.6356
45.26	9.9101
45.48	7.83893
45.7	19.3722
45.92	15.9411
46.14	11.0573
46.36	14.8057
46.58	3.44708
46.8	30.9841
47.02	17.7424
47.24	16.7703
47.46	29.891
47.68	27.6361
47.9	16.8832
48.12	14.8347
48.34	16.9759
48.56	0.630951
48.78	15.4691
49	19.3248
49.22	12.4102
49.44	7.23369
49.66	20.5929
49.88	37.0781
50.1	9.97179
50.32	15.1542
50.54	2.49015
50.76	17.1399
50.98	14.2117
51.2	6.16955
51.42	10.9448
51.64	49.2903
51.86	18.2191
52.08	3.55314
52.3	14.4952
52.52	6.34357
52.74	49.674
52.96	14.2512
53.18	33.3959
53.4	20.7297
53.62	2.00646
53.84	7.60169
54.06	23.5029
54.28	5.03202
54.5	18.9833
54.72	3.81839
54.94	3.19346
55.16	15.3112
55.38	1.62332
55.6	12.9726
55.82	4.52058
56.04	5.04593
56.26	13.1118
56.48	11.1088
56.7	20.107
56.92	6.24651
57.14	16.0231
57.36	22.1579
57.58	13.2865
57.8	5.40985
58.02	7.58805
58.24	18.9295
58.46	5.34888
58.68	12.1642
58.9	8.28946
59.12	8.39035
59.34	17.9734
59.56	21.0026
59.78	16.0553
60	1.42907
60.22	13.746
60.44	0.466221
60.66	10.2699
60.88	4.88488
61.1	11.164
61.32	12.1289
61.54	1.72544
61.76	6.36775
61.98	3.72159
62.2	10.1352
62.42	9.48671
62.64	23.12
62.86	5.85066
63.08	16.6768
63.3	2.21439
63.52	22.3256
63.74	31.7896
63.96	30.2273
64.18	25.6318
64.4	11.843
64.62	7.88092
64.84	15.5775
65.06	2.06042
65.28	17.0571
65.5	22.6188
65.72	8.3403
65.94	11.3864
66.16	18.5346
66.38	21.5637
66.6	2.83209
66.82	0.774551
67.04	18.7197
67.26	17.8932
67.48	10.116
67.7	14.0567
67.92	14.3447
68.14	10.2792
68.36	8.38985
68.58	18.6208
68.8	10.7094
69.02	5.64269
69.24	13.7512
69.46	3.59355
69.68	10.6947
69.9	2.87395
70.12	13.2656
70.34	14.0378
70.56	9.10161
70.78	15.0855
71	9.06836
71.22	19.3444
71.44	9.2761
71.66	12.5782
71.88	12.3738
72.1	17.5153
72.32	18.183
72.54	9.33308
72.76	13.0681
72.98	16.8897
73.2	8.97379
73.42	13.3893
73.64	14.0781
73.86	1.90659
74.08	17.0753
74.3	11.5332
74.52	13.2617
74.74	11.4284
74.96	6.51309
75.18	23.0173
75.4	11.5746
75.62	17.8937
75.84	4.71684
76.06	3.06639
76.28	20.8664
76.5	5.15315
76.72	1.88556
76.94	21.2353
77.16	5.09234
77.38	15.4999
77.6	6.91988
77.82	17.3189
78.04	7.26087
78.26	10.9982
78.48	30.1488
78.7	24.7794
78.92	4.95175
79.14	5.74329
79.36	18.3816
79.58	3.26302
79.8	1.33147
80.02	17.3889
80.24	11.3037
80.46	12.061
80.68	8.12862
80.9	7.37164
81.12	14.6417
81.34	7.79392
81.56	1.42814
81.78	5.70058
82	3.47633
82.22	8.52889
82.44	15.5231
82.66	7.71093
82.88	16.0907
83.1	7.7164
83.32	9.71593
83.54	12.9877
83.76	14.8685
83.98	10.1387
84.2	6.54101
84.42	7.89344
84.64	9.03525
84.86	1.01113
85.08	0.94997
85.3	3.66741
85.52	6.77386
85.74	9.82069
85.96	4.96212
86.18	5.04522
86.4	1.0448
86.62	7.0363
86.84	6.49329
87.06	18.6585
87.28	3.74488
87.5	6.95295
87.72	0.983109
87.94	18.3556
88.16	15.2993
88.38	4.28507
88.6	4.40596
88.82	21.2389
89.04	11.6652
89.26	14.1559
89.48	5.07816
89.7	25.4753
89.92	6.79887
