Measurement: Powder, Xray Data XY Processed
Mineral: Columbite-(Mn)
Rruff sample: R050359
Ideal chemistry: Mn^2+^Nb^5+^_2_O_6_
Locality: Black Hills, South Dakota, USA
Source: University of Arizona Mineral Museum
Description: Black cleavage fragment
Diffraction sample description: Powder
Measured chemistry: (Mn^2+^_0.58_Fe^2+^_0.38_Ti_0.02_[box]_0.02_)(Nb_0.66_Ta_0.34_)_2_O_6_
Cell parameters: a: 14.288(2) b: 5.7405(7) c: 5.1191(7) alpha: 90. beta: 90. gamma: 90. volume: 419.87(5) crystal system: orthorhombic
x	intensity
5	0
5.22	12.367
5.44	2.74251
5.66	0.973656
5.88	3.53791
6.1	15.1253
6.32	20.0801
6.54	20.295
6.76	13.5504
6.98	4.4383
7.2	9.86582
7.42	10.5609
7.64	4.28676
7.86	11.5106
8.08	1.63644
8.3	19.6619
8.52	13.7417
8.74	5.55016
8.96	9.28078
9.18	12.1979
9.4	8.17003
9.62	3.9226
9.84	2.77763
10.06	3.03892
10.28	5.90052
10.5	8.58925
10.72	9.17696
10.94	12.0345
11.16	13.7455
11.38	2.3171
11.6	11.0313
11.82	6.11567
12.04	12.6709
12.26	15.0877
12.48	17.1003
12.7	8.6831
12.92	11.8217
13.14	15.8765
13.36	12.9849
13.58	0.967964
13.8	11.0332
14.02	12.1523
14.24	15.7993
14.46	7.19184
14.68	6.3561
14.9	9.24321
15.12	10.7831
15.34	10.3778
15.56	11.9857
15.78	5.31999
16	13.4619
16.22	6.10224
16.44	11.7096
16.66	24.2649
16.88	13.0946
17.1	4.61569
17.32	18.9179
17.54	10.0402
17.76	16.2162
17.98	13.8426
18.2	7.00446
18.42	9.12624
18.64	3.06902
18.86	8.29373
19.08	11.6739
19.3	5.89496
19.52	12.2829
19.74	3.31894
19.96	8.30184
20.18	1.1086
20.4	8.44045
20.62	7.2044
20.84	6.77183
21.06	13.8887
21.28	16.5907
21.5	10.59
21.72	14.2944
21.94	15.7337
22.16	1.26055
22.38	15.1427
22.6	8.62425
22.82	4.1201
23.04	14.4078
23.26	8.81508
23.48	15.8573
23.7	20.2777
23.92	9.13254
24.14	60.211
24.36	241.368
24.58	23.1867
24.8	10.0138
25.02	14.9376
25.24	6.89662
25.46	0.967361
25.68	9.01995
25.9	7.10537
26.12	6.45186
26.34	5.10148
26.56	9.44543
26.78	27.6358
27	20.9316
27.22	7.65893
27.44	11.2564
27.66	6.01042
27.88	11.0466
28.1	14.1298
28.32	9.56722
28.54	12.6789
28.76	5.09931
28.98	8.57975
29.2	7.29641
29.42	6.912
29.64	28.1039
29.86	111.248
30.08	689.263
30.3	58.0587
30.52	22.5443
30.74	16.8668
30.96	16.5759
31.18	68.2115
31.4	17.2262
31.62	3.71184
31.84	0.137592
32.06	8.48741
32.28	4.81123
32.5	12.9895
32.72	1.7277
32.94	2.54639
33.16	14.0299
33.38	6.82128
33.6	6.89273
33.82	7.34341
34.04	6.41216
34.26	11.561
34.48	3.03056
34.7	5.32036
34.92	30.073
35.14	59.9431
35.36	31.6117
35.58	24.348
35.8	50.989
36.02	71.3022
36.24	3.12807
36.46	12.8524
36.68	5.46256
36.9	10.0412
37.12	4.65662
37.34	11.4536
37.56	23.2437
37.78	40.7814
38	39.9087
38.22	27.8095
38.44	8.92516
38.66	4.80358
38.88	0.320496
39.1	3.6059
39.32	8.64493
39.54	17.5164
39.76	14.2029
39.98	19.8087
40.2	12.2302
40.42	4.83573
40.64	16.3886
40.86	37.9624
41.08	11.5451
41.3	10.5439
41.52	2.66991
41.74	6.71491
41.96	8.7351
42.18	3.6818
42.4	4.46003
42.62	8.18924
42.84	6.54463
43.06	37.1399
43.28	45.6422
43.5	10.7451
43.72	7.60568
43.94	8.83821
44.16	15.9321
44.38	13.2875
44.6	11.4911
44.82	3.15279
45.04	11.3775
45.26	9.31918
45.48	15.6332
45.7	7.3557
45.92	11.2334
46.14	2.46656
46.36	2.3565
46.58	7.25092
46.8	1.98657
47.02	6.83069
47.24	1.3931
47.46	27.9682
47.68	37.8083
47.9	20.4107
48.12	5.78341
48.34	0.593994
48.56	5.18573
48.78	8.90217
49	7.51978
49.22	11.9837
49.44	6.15749
49.66	23.7772
49.88	32.1119
50.1	13.44
50.32	5.27305
50.54	10.0498
50.76	20.9885
50.98	9.74429
51.2	7.91085
51.42	55.0822
51.64	55.5252
51.86	12.5107
52.08	1.09286
52.3	0.271286
52.52	117.453
52.74	32.6251
52.96	73.0778
53.18	133.069
53.4	37.2223
53.62	7.51031
53.84	4.01456
54.06	18.2765
54.28	12.3027
54.5	9.3513
54.72	4.37288
54.94	16.0076
55.16	16.96
55.38	12.6988
55.6	6.73944
55.82	8.54415
56.04	12.7402
56.26	7.67458
56.48	3.59889
56.7	11.7133
56.92	6.00011
57.14	11.3868
57.36	1.42155
57.58	9.68532
57.8	6.44299
58.02	8.42793
58.24	18.2094
58.46	14.6694
58.68	19.1373
58.9	8.63396
59.12	0.991947
59.34	6.65412
59.56	23.2593
59.78	37.9311
60	26.3949
60.22	21.451
60.44	26.3735
60.66	9.41643
60.88	1.36314
61.1	1.48188
61.32	7.32327
61.54	4.24279
61.76	15.6427
61.98	5.35192
62.2	16.7085
62.42	4.81105
62.64	10.3418
62.86	1.115
63.08	28.8232
63.3	44.6368
63.52	72.7326
63.74	97.2611
63.96	71.8388
64.18	11.6743
64.4	1.72066
64.62	22.8006
64.84	3.25018
65.06	12.9505
65.28	15.6827
65.5	19.2477
65.72	16.136
65.94	7.71622
66.16	3.88915
66.38	5.16308
66.6	2.34573
66.82	2.97758
67.04	7.7509
67.26	7.87204
67.48	13.5815
67.7	16.7596
67.92	19.4251
68.14	6.96204
68.36	15.2663
68.58	6.49664
68.8	6.48611
69.02	0.657246
69.24	16.7768
69.46	15.1376
69.68	1.45048
69.9	2.82215
70.12	12.3119
70.34	8.59886
70.56	9.12004
70.78	6.42479
71	8.26643
71.22	3.60846
71.44	7.12962
71.66	12.0222
71.88	25.4094
72.1	12.8975
72.32	19.4625
72.54	8.95728
72.76	7.48178
72.98	14.5316
73.2	10.3164
73.42	5.27736
73.64	13.7776
73.86	19.0099
74.08	13.027
74.3	22.1548
74.52	9.09039
74.74	14.8928
74.96	0.837152
75.18	11.8561
75.4	9.65211
75.62	10.6445
75.84	2.07159
76.06	11.8955
76.28	19.6933
76.5	20.6418
76.72	7.02675
76.94	5.24614
77.16	7.20707
77.38	9.10749
77.6	11.3351
77.82	16.1918
78.04	7.12112
78.26	15.7342
78.48	0.5378
78.7	2.78384
78.92	8.38607
79.14	11.7089
79.36	2.66401
79.58	8.09994
79.8	14.4603
80.02	3.03966
80.24	26.228
80.46	18.0841
80.68	18.3775
80.9	7.12618
81.12	2.44078
81.34	1.23865
81.56	6.77157
81.78	8.40276
82	14.9027
82.22	4.33468
82.44	23.6632
82.66	14.698
82.88	20.7116
83.1	18.7142
83.32	8.35255
83.54	15.4902
83.76	1.15178
83.98	5.8728
84.2	12.6694
84.42	7.17534
84.64	8.49574
84.86	15.2772
85.08	21.813
85.3	17.5814
85.52	6.97821
85.74	10.0419
85.96	5.70451
86.18	12.4938
86.4	1.24513
86.62	4.67342
86.84	17.7464
87.06	16.5489
87.28	14.2686
87.5	4.35683
87.72	20.4445
87.94	11.419
88.16	4.02085
88.38	10.7102
88.6	22.5199
88.82	35.3406
89.04	26.0785
89.26	15.5491
89.48	10.5563
89.7	13.8566
89.92	16.3105
