Measurement: Powder, Xray Data XY Processed
Mineral: Conichalcite
Rruff sample: R050506
Ideal chemistry: CaCu^2+^As^5+^O_4_(OH)
Locality: Higgins mine, Bisbee, Arizona, USA
Source: University of Arizona Mineral Museum
Description: Aggregate of green granules
Diffraction sample description: Single crystal, powder profile is calculated
Cell parameters: a: 7.3865(2) b: 5.8303(1) c: 9.2386(2) alpha: 90 beta: 90 gamma: 90 volume: 397.87(1) crystal system: orthorhombic
x	intensity
5	0
5.22	0
5.44	0
5.66	0
5.88	0
6.1	0
6.32	0
6.54	0
6.76	0
6.98	0
7.2	0
7.42	0
7.64	0
7.86	0
8.08	0
8.3	0
8.52	0
8.74	0
8.96	0
9.18	0
9.4	0
9.62	0
9.84	0
10.06	0
10.28	0
10.5	0
10.72	0
10.94	0
11.16	0
11.38	0
11.6	0
11.82	0
12.04	0
12.26	0
12.48	0
12.7	0
12.92	0
13.14	0
13.36	0
13.58	0
13.8	0
14.02	0
14.24	0
14.46	0
14.68	0
14.9	0
15.12	0
15.34	35.145
15.56	0
15.78	0
16	0
16.22	0
16.44	0
16.66	0
16.88	0
17.1	0
17.32	0
17.54	0
17.76	0
17.98	30.724
18.2	0
18.42	0
18.64	0
18.86	0
19.08	0
19.3	0.026
19.52	0
19.74	0
19.96	0
20.18	0
20.4	0
20.62	0
20.84	0
21.06	0
21.28	0
21.5	0
21.72	21.639
21.94	0
22.16	0
22.38	0
22.6	0.308
22.82	0.168
23.04	0
23.26	0
23.48	0
23.7	0
23.92	0
24.14	11.715
24.36	0
24.58	1.575
24.8	0
25.02	0
25.24	0
25.46	0
25.68	0
25.9	3.421
26.12	0.045
26.34	0
26.56	0
26.78	0
27	0
27.22	0
27.44	10.968
27.66	0
27.88	0
28.1	0
28.32	0
28.54	32.337
28.76	0.112
28.98	0
29.2	0
29.42	0
29.64	0
29.86	0
30.08	0
30.3	0.271
30.52	0.004
30.74	3.535
30.96	22.659
31.18	0.001
31.4	37.88
31.62	0.314
31.84	0
32.06	0.002
32.28	0.291
32.5	0
32.72	0
32.94	0.39
33.16	0.041
33.38	0
33.6	0
33.82	0
34.04	0
34.26	0
34.48	46.431
34.7	23.608
34.92	0
35.14	22.286
35.36	0
35.58	0
35.8	0
36.02	0
36.24	0
36.46	7.589
36.68	0
36.9	0
37.12	0
37.34	0
37.56	0
37.78	12.449
38	8.986
38.22	0.008
38.44	9.642
38.66	0.043
38.88	0.183
39.1	0.844
39.32	12.078
39.54	0.065
39.76	0.03
39.98	0
40.2	0
40.42	0
40.64	0.429
40.86	0.231
41.08	0.465
41.3	0.052
41.52	0
41.74	0
41.96	0
42.18	0
42.4	0
42.62	0
42.84	0
43.06	0
43.28	0
43.5	0
43.72	0
43.94	0.011
44.16	12.137
44.38	0.189
44.6	1.698
44.82	0
45.04	0
45.26	0
45.48	0
45.7	0
45.92	0
46.14	0
46.36	3.598
46.58	0.001
46.8	0
47.02	0
47.24	0.839
47.46	0.001
47.68	0.005
47.9	0.283
48.12	0
48.34	0.004
48.56	0.002
48.78	0
49	4.281
49.22	0.729
49.44	11.675
49.66	0.16
49.88	16.606
50.1	0.594
50.32	9.682
50.54	3.876
50.76	0
50.98	0.864
51.2	0.001
51.42	0
51.64	0
51.86	0.301
52.08	0.138
52.3	0
52.52	1.404
52.74	0.041
52.96	0.272
53.18	6.562
53.4	25.709
53.62	1.46
53.84	0
54.06	0
54.28	0.024
54.5	0.018
54.72	0
54.94	0
55.16	0
55.38	0
55.6	0.615
55.82	0.058
56.04	0.028
56.26	0
56.48	0.329
56.7	2.991
56.92	0.297
57.14	2.018
57.36	42.43
57.58	4.122
57.8	0
58.02	0.049
58.24	0.054
58.46	0.001
58.68	0
58.9	0
59.12	4.643
59.34	7.646
59.56	0
59.78	0
60	3.997
60.22	2.223
60.44	0.019
60.66	2.862
60.88	0.021
61.1	0
61.32	0
61.54	0.986
61.76	0.589
61.98	0.007
62.2	0
62.42	0.312
62.64	0.025
62.86	4.357
63.08	0.262
63.3	0
63.52	0
63.74	8.214
63.96	6.276
64.18	0.201
64.4	0.421
64.62	0.821
64.84	2.372
65.06	2.718
65.28	0.565
65.5	0.002
65.72	0.127
65.94	1.469
66.16	0.748
66.38	1.157
66.6	0.348
66.82	0.023
67.04	0.001
67.26	0.083
67.48	0.011
67.7	0.101
67.92	1.925
68.14	0.279
68.36	0
68.58	4.652
68.8	2.443
69.02	0.05
69.24	0.715
69.46	0.279
69.68	0
69.9	0
70.12	0.889
70.34	0.262
70.56	0.001
70.78	0
71	0.016
71.22	0.023
71.44	0.091
71.66	0.125
71.88	0.003
72.1	0
72.32	0.383
72.54	0.733
72.76	4.321
72.98	2.118
73.2	0.033
73.42	0.056
73.64	0.328
73.86	0.118
74.08	0.253
74.3	0.521
74.52	0.475
74.74	0.331
74.96	0.184
75.18	0.029
75.4	0.03
75.62	0.015
75.84	0.002
76.06	0.001
76.28	0
76.5	0.224
76.72	0.637
76.94	0.261
77.16	0
77.38	0.365
77.6	0.183
77.82	0.001
78.04	0
78.26	0.654
78.48	0.289
78.7	0.027
78.92	5.867
79.14	2.034
79.36	0.052
79.58	0.464
79.8	0.489
80.02	0
80.24	0.084
80.46	0.192
80.68	0.903
80.9	1.944
81.12	0.413
81.34	0.051
81.56	0.058
81.78	1.238
82	0.356
82.22	0
82.44	1.627
82.66	1.858
82.88	1.844
83.1	0.326
83.32	0.463
83.54	0.123
83.76	1.928
83.98	0.83
84.2	0.012
84.42	0.757
84.64	2.527
84.86	0.695
85.08	0.089
85.3	0.029
85.52	0.192
85.74	1.036
85.96	0.273
86.18	0.241
86.4	0.021
86.62	0.024
86.84	0.023
87.06	0.02
87.28	0.006
87.5	0.002
87.72	1.56
87.94	0.988
88.16	0.713
88.38	0.003
88.6	0.232
88.82	0.143
89.04	2.047
89.26	5.635
89.48	0.151
89.7	0.322
89.92	0.092
