Measurement: Powder, Xray Data XY Processed
Mineral: Conichalcite
Rruff sample: R050028
Ideal chemistry: CaCu^2+^As^5+^O_4_(OH)
Locality: Mapimi, Durango, Mexico
Source: Eugene Schlepp
Description: Green botryoidal groups covering adamite
Diffraction sample description: Powder, mixed with adamite
Measured chemistry: Ca_1.00_(Cu_0.70_Zn_0.30_)_Î£=1_(As_1.00_O_4_)(OH)
Cell parameters: a: 7.449(2) b: 5.860(2) c: 9.131(3) alpha: 90 beta: 90 gamma: 90 volume: 398.6(0) crystal system: orthorhombic
x	intensity
5	0
5.22	0.401
5.44	0.648
5.66	26.261
5.88	6.237
6.1	5.889
6.32	7.186
6.54	20.126
6.76	23.964
6.98	14.845
7.2	10.202
7.42	9.086
7.64	10.034
7.86	20.868
8.08	11.238
8.3	2.199
8.52	15.865
8.74	15.197
8.96	14.201
9.18	6.324
9.4	11.372
9.62	11.546
9.84	17.909
10.06	7.204
10.28	7.575
10.5	1.067
10.72	14.455
10.94	0.74
11.16	30.937
11.38	14.535
11.6	7.032
11.82	15.432
12.04	23.604
12.26	16.52
12.48	12.728
12.7	0.835
12.92	21.188
13.14	14.981
13.36	28.247
13.58	16.273
13.8	12.286
14.02	23.81
14.24	8.444
14.46	14.106
14.68	17.343
14.9	62.866
15.12	11.331
15.34	71.662
15.56	19.509
15.78	0.734
16	23.39
16.22	26.549
16.44	17.291
16.66	14.999
16.88	2.598
17.1	2.615
17.32	5.121
17.54	14.241
17.76	20.618
17.98	85.134
18.2	45.108
18.42	2.337
18.64	11.556
18.86	8.466
19.08	21.653
19.3	6.679
19.52	21.727
19.74	11.686
19.96	8.675
20.18	22.641
20.4	15.947
20.62	11.705
20.84	30.876
21.06	19.431
21.28	17.263
21.5	37.436
21.72	27.837
21.94	6.361
22.16	15.476
22.38	14.269
22.6	6.012
22.82	31.89
23.04	20.609
23.26	18.408
23.48	31.042
23.7	26.098
23.92	35.94
24.14	48.113
24.36	2.654
24.58	10.598
24.8	7.998
25.02	12.451
25.24	3.033
25.46	21.294
25.68	27.205
25.9	30.199
26.12	16.355
26.34	15.04
26.56	28.256
26.78	34.908
27	15.832
27.22	21.463
27.44	53.997
27.66	23.733
27.88	25.862
28.1	32.569
28.32	68.52
28.54	81.577
28.76	22.502
28.98	8.32
29.2	13.176
29.42	7.657
29.64	19.958
29.86	37.819
30.08	71.893
30.3	2.81
30.52	20.166
30.74	5.734
30.96	44.543
31.18	18.414
31.4	18.848
31.62	72.767
31.84	53.599
32.06	44.16
32.28	6.058
32.5	0.999
32.72	8.348
32.94	27.224
33.16	45.893
33.38	57.528
33.6	26.374
33.82	5.637
34.04	13.464
34.26	57.669
34.48	20.071
34.7	51.417
34.92	14.484
35.14	15.472
35.36	41.872
35.58	12.627
35.8	13.551
36.02	10.163
36.24	17.482
36.46	55.402
36.68	46.475
36.9	21.773
37.12	44.085
37.34	9.076
37.56	28.771
37.78	9.134
38	9.149
38.22	65.318
38.44	37.987
38.66	9.785
38.88	0.587
39.1	0.994
39.32	22.248
39.54	32.681
39.76	12.3
39.98	3.021
40.2	3.378
40.42	15.659
40.64	12.06
40.86	42.386
41.08	25.422
41.3	33.45
41.52	1.849
41.74	18.436
41.96	13.731
42.18	7.832
42.4	9.169
42.62	3.791
42.84	25.356
43.06	5.405
43.28	3.32
43.5	19.316
43.72	11.965
43.94	34.301
44.16	17.342
44.38	12.618
44.6	16.729
44.82	0.402
45.04	14.094
45.26	3.383
45.48	24.299
45.7	3.113
45.92	19.597
46.14	13.166
46.36	20.323
46.58	26.632
46.8	23.523
47.02	8.106
47.24	22.21
47.46	22.384
47.68	2.546
47.9	16.353
48.12	16.839
48.34	16.594
48.56	15.333
48.78	13.13
49	1.076
49.22	39.752
49.44	28.786
49.66	3.691
49.88	26.844
50.1	19.132
50.32	13.151
50.54	33.9
50.76	32.424
50.98	8.086
51.2	20.261
51.42	0.785
51.64	18.344
51.86	15.159
52.08	13.681
52.3	9.412
52.52	27.213
52.74	5.578
52.96	25.799
53.18	20.54
53.4	32.838
53.62	7.852
53.84	20.293
54.06	24.053
54.28	25.141
54.5	3.987
54.72	6.795
54.94	13.661
55.16	18.656
55.38	10.223
55.6	5.872
55.82	7.91
56.04	3.679
56.26	13.853
56.48	13.303
56.7	18.644
56.92	10.682
57.14	47.25
57.36	57.25
57.58	10.092
57.8	13.838
58.02	10.211
58.24	32.567
58.46	13.527
58.68	44.181
58.9	37.332
59.12	11.369
59.34	8.039
59.56	8.948
59.78	23.029
60	8.389
60.22	3.562
60.44	7.463
60.66	14.511
60.88	20.739
61.1	14.697
61.32	29.026
61.54	1.035
61.76	3.393
61.98	7.179
62.2	12.977
62.42	22.64
62.64	25.622
62.86	8.399
63.08	1.075
63.3	0.145
63.52	34.323
63.74	9.313
63.96	20.315
64.18	18.935
64.4	31.377
64.62	33.364
64.84	17.023
65.06	38.247
65.28	2.657
65.5	20.624
65.72	16.42
65.94	27.737
66.16	26.47
66.38	14.601
66.6	18.521
66.82	15.587
67.04	9.07
67.26	24.009
67.48	17.29
67.7	21.905
67.92	13.778
68.14	9.023
68.36	20.211
68.58	24.954
68.8	23.559
69.02	16.818
69.24	0.436
69.46	12.943
69.68	5.234
69.9	26.787
70.12	22.279
70.34	25.23
70.56	26.757
70.78	4.689
71	2.335
71.22	14.322
71.44	13.414
71.66	14.994
71.88	36.398
72.1	28.669
72.32	22.778
72.54	3.867
72.76	39.188
72.98	13.463
73.2	2.517
73.42	13.453
73.64	39.483
73.86	5.636
74.08	19.646
74.3	27.916
74.52	18.593
74.74	21.875
74.96	6.029
75.18	4.124
75.4	9.238
75.62	23.783
75.84	0.21
76.06	31.433
76.28	12.341
76.5	6.957
76.72	16.847
76.94	3.622
77.16	17.967
77.38	11.059
77.6	14.387
77.82	7.665
78.04	25.846
78.26	24.641
78.48	21.573
78.7	23.46
78.92	11.665
79.14	22.707
79.36	7.005
79.58	19.99
79.8	9.954
80.02	15.449
80.24	8.622
80.46	10.699
80.68	16.071
80.9	18.919
81.12	15.733
81.34	3.799
81.56	7.311
81.78	16.523
82	8.543
82.22	6.337
82.44	22.613
82.66	19.672
82.88	8.624
83.1	6.718
83.32	11.491
83.54	5.731
83.76	2.915
83.98	13.141
84.2	33.647
84.42	6.782
84.64	10.603
84.86	8.496
85.08	8.488
85.3	6.671
85.52	7.297
85.74	25.446
85.96	3.923
86.18	7.792
86.4	13.173
86.62	9.468
86.84	17.301
87.06	0.354
87.28	14.001
87.5	10.736
87.72	7.48
87.94	21.22
88.16	9.065
88.38	23.532
88.6	16.223
88.82	19.995
89.04	7.681
89.26	19.562
89.48	3.75
89.7	30.428
89.92	4.968
