Measurement: Powder, Xray Data XY Processed
Mineral: Connellite
Rruff sample: R060503
Ideal chemistry: Cu^2+^_36_(S^6+^O_4_)(OH)_62_Cl_8_6H_2_O
Locality: Shattuck mine, Bisbee, Cochise County, Arizona, USA
Source: University of Arizona Mineral Museum
Description: Blue thin prismatic crystals
Diffraction sample description: Single crystal, powder profile is calculated
Measured chemistry: Cu_33.68_(SO_4_)_1.83_(OH)_62_Cl_7.55_Â·6H_2_O
Cell parameters: a: 15.787(5) b: 15.787(5) c: 9.118(2) alpha: 90 beta: 90 gamma: 120 volume: 1968(1) crystal system: hexagonal
x	intensity
5	0
5.22	0
5.44	0
5.66	0
5.88	0
6.1	0
6.32	0
6.54	1.584
6.76	0
6.98	0
7.2	0
7.42	0
7.64	0
7.86	0
8.08	0
8.3	0
8.52	0
8.74	0
8.96	0
9.18	0
9.4	0
9.62	0
9.84	0
10.06	0
10.28	0
10.5	0
10.72	0
10.94	0
11.16	26.568
11.38	0
11.6	0.065
11.82	0
12.04	0
12.26	0
12.48	0
12.7	0
12.92	2.238
13.14	0
13.36	0
13.58	0
13.8	0
14.02	0
14.24	0
14.46	0
14.68	0
14.9	0
15.12	0
15.34	0
15.56	0
15.78	0
16	0
16.22	16.18
16.44	0
16.66	0
16.88	0
17.1	4.181
17.32	0
17.54	0
17.76	0
17.98	0
18.2	0
18.42	0
18.64	0
18.86	0
19.08	0
19.3	0
19.52	5.081
19.74	3.734
19.96	0
20.18	0
20.4	0.001
20.62	0.803
20.84	0
21.06	0
21.28	0
21.5	0
21.72	0.061
21.94	0.001
22.16	0
22.38	0
22.6	0.207
22.82	0
23.04	0
23.26	0
23.48	8.149
23.7	0
23.92	0
24.14	0
24.36	0
24.58	0
24.8	0
25.02	0
25.24	0
25.46	0.914
25.68	0
25.9	0
26.12	5.518
26.34	0
26.56	0
26.78	0
27	0
27.22	0
27.44	0
27.66	8.551
27.88	5.849
28.1	0
28.32	0
28.54	0.044
28.76	0
28.98	0
29.2	0
29.42	0
29.64	0
29.86	0.135
30.08	1.137
30.3	0
30.52	0.001
30.74	0.539
30.96	0
31.18	0
31.4	0
31.62	0.364
31.84	0
32.06	0
32.28	0.383
32.5	0
32.72	14.361
32.94	0
33.16	0
33.38	0
33.6	0
33.82	0
34.04	0.136
34.26	6.509
34.48	0
34.7	8.451
34.92	0
35.14	0
35.36	0
35.58	0.042
35.8	0
36.02	7.148
36.24	0.008
36.46	0.007
36.68	0.611
36.9	0
37.12	0
37.34	0
37.56	0
37.78	0.001
38	2.863
38.22	0
38.44	0.332
38.66	0
38.88	0
39.1	0
39.32	0
39.54	12.458
39.76	0.327
39.98	0.041
40.2	2.305
40.42	0
40.64	0
40.86	0.228
41.08	0.006
41.3	3.019
41.52	0.071
41.74	0.091
41.96	0
42.18	0
42.4	1.049
42.62	0.017
42.84	0
43.06	0
43.28	0.187
43.5	0.611
43.72	0
43.94	0
44.16	0
44.38	0.367
44.6	1.453
44.82	0
45.04	0.003
45.26	0
45.48	0
45.7	0
45.92	1.724
46.14	0.969
46.36	0.032
46.58	0.97
46.8	0
47.02	0
47.24	0
47.46	0.003
47.68	0.419
47.9	0.827
48.12	0.128
48.34	0
48.56	0
48.78	0
49	0.264
49.22	0.067
49.44	0.068
49.66	0
49.88	0.001
50.1	0.035
50.32	1.965
50.54	0.344
50.76	0.731
50.98	1.074
51.2	0
51.42	1.039
51.64	0.006
51.86	0.004
52.08	0.008
52.3	1.228
52.52	0
52.74	0
52.96	0
53.18	0.348
53.4	0.348
53.62	0.083
53.84	0
54.06	0.003
54.28	0.023
54.5	0.108
54.72	0.027
54.94	1.54
55.16	0.035
55.38	0
55.6	0
55.82	0.043
56.04	0.642
56.26	0.3
56.48	0.012
56.7	0
56.92	0
57.14	6.091
57.36	0.467
57.58	1.945
57.8	0.028
58.02	0
58.24	0
58.46	1.773
58.68	0.314
58.9	0.645
59.12	0.004
59.34	0.364
59.56	0.117
59.78	0.92
60	0.247
60.22	0.505
60.44	0
60.66	0
60.88	0.4
61.1	0.462
61.32	0.089
61.54	0.044
61.76	0.001
61.98	0.018
62.2	1.611
62.42	0.199
62.64	1.938
62.86	0.07
63.08	0.1
63.3	0.051
63.52	0.171
63.74	0.212
63.96	0.272
64.18	0
64.4	0
64.62	0.783
64.84	0.116
65.06	0.376
65.28	0.04
65.5	0.048
65.72	0.068
65.94	1.312
66.16	0.231
66.38	0.019
66.6	0.001
66.82	0.011
67.04	0.146
67.26	0.25
67.48	0.181
67.7	0.007
67.92	0
68.14	0.029
68.36	0.057
68.58	1.442
68.8	0.515
69.02	0.007
69.24	0.023
69.46	0.955
69.68	0.464
69.9	0.083
70.12	0
70.34	0
70.56	0.148
70.78	0.14
71	0.082
71.22	0.01
71.44	0
71.66	0.822
71.88	0.417
72.1	1.485
72.32	0.481
72.54	0
72.76	0.02
72.98	0.041
73.2	0.433
73.42	0.209
73.64	0.111
73.86	0.064
74.08	0.051
74.3	0.178
74.52	0.085
74.74	0
74.96	0.002
75.18	0.133
75.4	0.201
75.62	0.068
75.84	0.001
76.06	0
76.28	0.333
76.5	0.181
76.72	0.01
76.94	0.002
77.16	0
77.38	0.06
77.6	0.036
77.82	0.006
78.04	0.003
78.26	0
78.48	0.528
78.7	0.258
78.92	0.02
79.14	0.021
79.36	0
79.58	0.227
79.8	0.07
80.02	0.012
80.24	0.013
80.46	0.069
80.68	0.16
80.9	0.013
81.12	0.023
81.34	0.027
81.56	0
81.78	0.092
82	0.014
82.22	0.058
82.44	0.083
82.66	0.096
82.88	0.13
83.1	0.009
83.32	0.008
83.54	0.013
83.76	0.009
83.98	0.1
84.2	0.007
84.42	0.027
84.64	0.046
84.86	0
85.08	1.034
85.3	0.558
85.52	0.012
85.74	0.036
85.96	0.003
86.18	0.239
86.4	0.14
86.62	0.008
86.84	0.022
87.06	0.009
87.28	0.024
87.5	0.014
87.72	0.007
87.94	0.035
88.16	0
88.38	0.09
88.6	0.047
88.82	0.003
89.04	0.01
89.26	0
89.48	0.217
89.7	0.117
89.92	0.004
