Measurement: Powder, Xray Data XY Processed
Mineral: Cookeite
Rruff sample: R061103
Ideal chemistry: LiAl_4_(Si_3_Al)O_10_(OH)_8_
Locality: Green mine, Saline County, Arkansas, USA
Source: Michael Scott
Description: Mass of cream colored micaceous crystals
Diffraction sample description: Powder
Cell parameters: a: 5.4670(8) b: 9.0668(7) c: 28.2947(6) alpha: 90 beta: 93.08(1) gamma: 90 volume: 1400.5(1) crystal system: monoclinic
x	intensity
5	0
5.22	11.0327
5.44	22.2238
5.66	160.695
5.88	69.9634
6.1	682.828
6.32	5037.39
6.54	88.056
6.76	25.128
6.98	35.6809
7.2	16.4777
7.42	14.7632
7.64	0.403725
7.86	17.6494
8.08	9.95522
8.3	3.37043
8.52	6.78661
8.74	9.47924
8.96	3.61025
9.18	3.52753
9.4	15.5907
9.62	6.1328
9.84	9.20944
10.06	9.90832
10.28	18.163
10.5	8.18294
10.72	0.244728
10.94	0.435738
11.16	16.2401
11.38	36.7265
11.6	0.372387
11.82	9.08488
12.04	24.135
12.26	84.4155
12.48	1272.99
12.7	271.594
12.92	37.8446
13.14	9.36301
13.36	8.49145
13.58	19.7703
13.8	19.2787
14.02	7.18947
14.24	24.8816
14.46	6.22274
14.68	20.9184
14.9	19.3647
15.12	14.1053
15.34	10.8851
15.56	8.90189
15.78	21.7719
16	3.44149
16.22	4.79571
16.44	0.720024
16.66	15.2074
16.88	7.03858
17.1	52.7624
17.32	12.3423
17.54	14.5552
17.76	9.44918
17.98	8.78571
18.2	20.8433
18.42	70.2663
18.64	260.306
18.86	10418.5
19.08	325.671
19.3	56.7268
19.52	3.37207
19.74	26.4307
19.96	30.0236
20.18	20.1713
20.4	18.0804
20.62	21.9802
20.84	1.62641
21.06	14.1803
21.28	4.07859
21.5	13.3443
21.72	15.961
21.94	14.8306
22.16	12.4168
22.38	2.45957
22.6	5.79444
22.82	49.0797
23.04	15.1631
23.26	13.8967
23.48	8.30338
23.7	0.29245
23.92	3.42938
24.14	16.2565
24.36	20.6044
24.58	30.9996
24.8	48.6172
25.02	172.027
25.24	5656.97
25.46	206.999
25.68	52.8366
25.9	17.9537
26.12	13.7533
26.34	13.236
26.56	14.9478
26.78	9.71238
27	5.14981
27.22	11.2549
27.44	20.5233
27.66	19.1328
27.88	4.92536
28.1	24.6516
28.32	24.3482
28.54	56.309
28.76	16.9644
28.98	10.6594
29.2	15.4361
29.42	5.1502
29.64	0.270317
29.86	2.92699
30.08	4.95968
30.3	10.5397
30.52	2.65826
30.74	3.14553
30.96	18.3236
31.18	6.5553
31.4	56.6248
31.62	933.514
31.84	252.258
32.06	40.3688
32.28	18.6017
32.5	5.27425
32.72	4.8624
32.94	11.5294
33.16	8.91811
33.38	5.63558
33.6	6.91403
33.82	12.773
34.04	10.8932
34.26	12.433
34.48	15.7882
34.7	10.1661
34.92	19.0725
35.14	16.314
35.36	3.53212
35.58	4.6216
35.8	33.9186
36.02	13.9089
36.24	15.6484
36.46	12.0923
36.68	11.5
36.9	13.6404
37.12	5.59664
37.34	3.38173
37.56	11.1297
37.78	4.74384
38	32.5932
38.22	380.389
38.44	31.535
38.66	16.2308
38.88	49.7439
39.1	6.34505
39.32	3.64291
39.54	17.5174
39.76	14.1051
39.98	3.6199
40.2	14.4789
40.42	6.33913
40.64	5.98184
40.86	9.35303
41.08	16.3552
41.3	7.25663
41.52	13.5224
41.74	4.04108
41.96	13.055
42.18	17.0293
42.4	4.1312
42.62	6.58962
42.84	10.2502
43.06	3.15108
43.28	3.00247
43.5	3.20411
43.72	7.54268
43.94	0.72925
44.16	0.322891
44.38	15.1367
44.6	12.962
44.82	136.212
45.04	245.81
45.26	21.844
45.48	12.5099
45.7	12.4948
45.92	10.2027
46.14	17.1589
46.36	22.1209
46.58	17.267
46.8	3.88811
47.02	23.8431
47.24	3.87959
47.46	17.9547
47.68	11.1302
47.9	4.13678
48.12	6.48796
48.34	7.0201
48.56	9.48418
48.78	5.85356
49	0.118034
49.22	10.2153
49.44	17.2496
49.66	3.77223
49.88	5.8301
50.1	12.5304
50.32	11.9001
50.54	9.75923
50.76	6.63513
50.98	12.5723
51.2	1.93186
51.42	7.77091
51.64	10.7246
51.86	106.913
52.08	16.0512
52.3	10.4262
52.52	13.6208
52.74	10.8902
52.96	9.97236
53.18	3.02001
53.4	4.0102
53.62	8.8658
53.84	2.71434
54.06	9.88564
54.28	15.4129
54.5	14.2669
54.72	16.609
54.94	6.24803
55.16	4.84844
55.38	9.62631
55.6	7.48105
55.82	13.5639
56.04	24.6044
56.26	29.7826
56.48	19.4888
56.7	11.7844
56.92	6.05326
57.14	6.69338
57.36	7.54191
57.58	6.29848
57.8	6.80344
58.02	14.211
58.24	4.95133
58.46	4.87078
58.68	4.97922
58.9	25.8677
59.12	4.34884
59.34	6.99537
59.56	8.11696
59.78	13.9982
60	15.2388
60.22	14.304
60.44	16.3743
60.66	17.114
60.88	6.23403
61.1	8.32989
61.32	2.38137
61.54	10.6676
61.76	19.0602
61.98	8.91024
62.2	13.7711
62.42	8.47632
62.64	2.64095
62.86	8.89048
63.08	14.0038
63.3	1.63823
63.52	4.76383
63.74	4.79076
63.96	11.4995
64.18	12.1751
64.4	3.21034
64.62	7.91029
64.84	12.6239
65.06	0.322432
65.28	9.66799
65.5	14.4001
65.72	3.99516
65.94	21.7913
66.16	76.2028
66.38	39.1388
66.6	4.41022
66.82	8.54666
67.04	6.78566
67.26	4.06084
67.48	12.4291
67.7	3.09298
67.92	7.45036
68.14	13.4761
68.36	17.8756
68.58	9.84591
68.8	5.84821
69.02	3.4403
69.24	2.40783
69.46	7.98128
69.68	3.25228
69.9	5.46785
70.12	4.33378
70.34	9.21771
70.56	10.2149
70.78	1.26091
71	11.8247
71.22	7.29428
71.44	6.86329
71.66	18.4168
71.88	9.76912
72.1	14.4319
72.32	50.3163
72.54	38.8105
72.76	19.5845
72.98	12.4119
73.2	11.9593
73.42	6.24021
73.64	7.40597
73.86	11.4736
74.08	1.73812
74.3	7.82351
74.52	3.81686
74.74	14.0628
74.96	0.371836
75.18	6.81578
75.4	12.1819
75.62	10.5217
75.84	6.70054
76.06	6.92428
76.28	8.37795
76.5	6.69496
76.72	12.3163
76.94	7.87129
77.16	8.77993
77.38	8.09955
77.6	11.3269
77.82	2.23164
78.04	4.70602
78.26	13.7475
78.48	3.74486
78.7	18.9523
78.92	6.88919
79.14	5.5518
79.36	12.424
79.58	8.27199
79.8	1.32667
80.02	10.5075
80.24	10.2893
80.46	3.81405
80.68	15.5835
80.9	4.48639
81.12	4.08227
81.34	9.9495
81.56	12.0765
81.78	35.1718
82	43.2798
82.22	7.20914
82.44	3.80706
82.66	9.07099
82.88	5.33193
83.1	12.7375
83.32	11.943
83.54	13.0832
83.76	0.270571
83.98	7.76035
84.2	6.64723
84.42	18.7109
84.64	7.07216
84.86	8.30211
85.08	7.23022
85.3	5.289
85.52	12.1353
85.74	4.37664
85.96	9.77451
86.18	11.5519
86.4	3.06669
86.62	1.11038
86.84	7.85463
87.06	8.64322
87.28	3.38832
87.5	7.35231
87.72	5.74378
87.94	5.7581
88.16	1.27231
88.38	6.35791
88.6	3.42066
88.82	12.6956
89.04	7.89825
89.26	7.15662
89.48	3.84728
89.7	6.45752
89.92	7.22469
