Measurement: Powder, Xray Data XY Processed
Mineral: Copper
Rruff sample: R061078
Ideal chemistry: Cu
Locality: Afton mine, Kamloops, British Columbia, Canada
Source: Lloyd Twaites
Description: Rose-brass colored massive metallic
Diffraction sample description: Powder, using Mo radiation
Cell parameters: a: 3.6215(7) b: 3.6215(7) c: 3.6215(7) alpha: 90 beta: 90 gamma: 90 volume: 47.50(3) crystal system: cubic
x	intensity
6	0
6.15	0.091821
6.3	21.3998
6.45	4.66574
6.6	12.3031
6.75	26.4043
6.9	36.4684
7.05	36.5566
7.2	26.8046
7.35	24.9831
7.5	30.6386
7.65	26.8594
7.8	25.3835
7.95	18.7629
8.1	29.626
8.25	19.068
8.4	30.5771
8.55	10.1874
8.7	14.863
8.85	18.4255
9	17.2357
9.15	18.7532
9.3	21.1102
9.45	18.6767
9.6	30.6981
9.75	38.4668
9.9	48.1217
10.05	39.8639
10.2	38.2979
10.35	21.427
10.5	29.1395
10.65	10.4828
10.8	8.29119
10.95	2.88751
11.1	3.7172
11.25	8.01152
11.4	13.2772
11.55	12.6148
11.7	6.2271
11.85	5.02001
12	3.45388
12.15	2.22073
12.3	13.462
12.45	6.24252
12.6	12.6561
12.75	1.82845
12.9	9.06807
13.05	1.33769
13.2	4.68412
13.35	0.298953
13.5	1.23248
13.65	6.48595
13.8	1.89089
13.95	6.37675
14.1	0.544303
14.25	5.34196
14.4	7.70273
14.55	0.454946
14.7	3.70928
14.85	4.58191
15	4.50447
15.15	6.3514
15.3	7.5477
15.45	0.772569
15.6	1.60227
15.75	3.69802
15.9	0.973545
16.05	5.62429
16.2	1.93736
16.35	6.57332
16.5	4.32963
16.65	10.0271
16.8	1.05327
16.95	5.28331
17.1	0.126736
17.25	4.72712
17.4	1.58226
17.55	3.50912
17.7	0.021925
17.85	2.21117
18	6.73993
18.15	5.26992
18.3	0.252991
18.45	9.21393
18.6	7.44402
18.75	10.7823
18.9	15.6451
19.05	19.8652
19.2	72.0554
19.35	504.277
19.5	1917.3
19.65	2870.69
19.8	1509.2
19.95	319.28
20.1	123.122
20.25	72.2009
20.4	56.2377
20.55	41.5534
20.7	37.0095
20.85	32.9807
21	25.0883
21.15	21.3892
21.3	16.2411
21.45	4.89645
21.6	7.60794
21.75	3.35455
21.9	4.42202
22.05	4.85507
22.2	7.64779
22.35	47.1113
22.5	169.821
22.65	339.385
22.8	340.718
22.95	149.711
23.1	35.7267
23.25	14.1235
23.4	3.34627
23.55	3.4902
23.7	0.804138
23.85	0.992931
24	3.5776
24.15	3.06102
24.3	1.52872
24.45	3.78666
24.6	1.06545
24.75	2.77035
24.9	1.7719
25.05	2.70081
25.2	0.964911
25.35	1.58995
25.5	3.21773
25.65	0.731177
25.8	6.65697
25.95	0.635751
26.1	3.75177
26.25	0.799362
26.4	2.98394
26.55	1.14906
26.7	1.859
26.85	3.9168
27	4.33079
27.15	3.14326
27.3	5.51666
27.45	2.47406
27.6	0.326575
27.75	2.17725
27.9	4.20214
28.05	3.61288
28.2	3.01502
28.35	0.172288
28.5	8.2106
28.65	3.14078
28.8	2.1126
28.95	0.896114
29.1	0.869313
29.25	3.22064
29.4	2.12954
29.55	3.95137
29.7	5.97066
29.85	2.5038
30	0.266471
30.15	1.63476
30.3	0.792722
30.45	0.063805
30.6	1.57167
30.75	5.95953
30.9	4.27805
31.05	3.87049
31.2	3.4576
31.35	4.17348
31.5	4.7125
31.65	9.26888
31.8	23.2372
31.95	112.715
32.1	407.611
32.25	525.347
32.4	377.031
32.55	132.589
32.7	43.1284
32.85	23.6434
33	16.3112
33.15	12.6873
33.3	12.0536
33.45	7.53517
33.6	7.81932
33.75	2.61403
33.9	5.99256
34.05	3.60261
34.2	8.81527
34.35	4.80024
34.5	2.7945
34.65	4.17023
34.8	2.70518
34.95	5.83604
35.1	0.275633
35.25	4.11557
35.4	2.7741
35.55	2.81839
35.7	3.299
35.85	0.884326
36	0.691397
36.15	2.2601
36.3	0.03937
36.45	0.552703
36.6	3.62981
36.75	4.30654
36.9	2.55744
37.05	3.01855
37.2	4.36893
37.35	7.90284
37.5	9.76725
37.65	34.3759
37.8	132.51
37.95	269.606
38.1	273.659
38.25	195.638
38.4	85.714
38.55	28.7349
38.7	15.6852
38.85	12.0737
39	6.47504
39.15	13.9625
39.3	14.5341
39.45	39.6454
39.6	146.268
39.75	284.267
39.9	237.831
40.05	184.79
40.2	48.4628
40.35	23.074
40.5	18.3165
40.65	11.5793
40.8	5.10925
40.95	9.34627
41.1	4.60219
41.25	1.25181
41.4	2.09829
41.55	7.1668
41.7	0.966784
41.85	2.08602
42	4.2373
42.15	3.67881
42.3	4.73623
42.45	3.86021
42.6	3.91947
42.75	4.45776
42.9	1.10426
43.05	0.838566
43.2	1.85414
43.35	2.4136
43.5	0.703699
43.65	3.03571
43.8	4.88612
43.95	2.94697
44.1	3.43616
44.25	4.87104
44.4	2.68438
44.55	0.413623
44.7	1.01629
44.85	0.596801
45	1.87269
45.15	2.7796
45.3	2.75364
45.45	8.47667
45.6	7.18704
45.75	5.0303
45.9	4.42591
46.05	8.76146
46.2	7.80911
46.35	4.01901
46.5	1.9649
46.65	3.95553
46.8	4.11305
46.95	1.71811
47.1	1.10061
47.25	3.06611
47.4	1.13816
47.55	3.86019
47.7	5.23039
47.85	5.99453
48	1.18012
48.15	6.12
48.3	0.885986
48.45	3.15966
48.6	7.48796
48.75	1.16759
48.9	0.716374
49.05	6.42868
49.2	1.47502
49.35	2.2766
49.5	6.90644
49.65	0.324371
49.8	4.15618
49.95	3.25303
50.1	6.94824
50.25	17.4711
50.4	82.142
50.55	177.417
50.7	131.626
50.85	135.191
51	94.8992
51.15	25.75
51.3	9.90941
51.45	16.1161
51.6	17.0627
51.75	36.8115
51.9	48.5335
52.05	61.9804
52.2	41.6249
52.35	36.7297
52.5	17.6111
52.65	7.33504
52.8	0.330473
52.95	9.63837
53.1	3.52602
53.25	0.139771
53.4	2.70762
53.55	1.24487
53.7	5.53481
53.85	3.32666
54	6.03162
54.15	2.78279
54.3	8.30647
54.45	4.88857
54.6	9.49328
54.75	5.4347
54.9	7.84223
55.05	10.8661
55.2	1.35873
55.35	1.44524
55.5	4.95262
55.65	1.4049
55.8	1.42863
55.95	3.68031
56.1	8.7552
56.25	4.31326
56.4	11.9373
56.55	0.112192
56.7	6.81264
56.85	15.3955
57	18.2339
57.15	26.053
57.3	77.9506
57.45	89.1708
57.6	64.5648
57.75	61.5149
57.9	46.711
58.05	16.4063
58.2	8.01359
58.35	14.5027
58.5	9.22671
58.65	2.91747
58.8	2.76675
58.95	6.40922
59.1	4.67183
59.25	4.13539
59.4	0.933204
59.55	0.926085
59.7	9.43474
59.85	4.70451
60	2.66767
60.15	1.11572
60.3	3.17935
60.45	4.36758
60.6	3.51129
60.75	3.46871
60.9	12.0944
61.05	13.6826
61.2	30.1073
61.35	28.5831
61.5	16.5578
61.65	18.4247
61.8	23.8101
61.95	6.45518
62.1	8.64102
62.25	5.20014
62.4	2.9594
62.55	7.96629
62.7	5.55237
62.85	8.36557
63	3.39483
63.15	0.180628
63.3	2.0513
63.45	0.050182
63.6	4.29342
63.75	2.67357
63.9	2.4476
64.05	0.171075
64.2	2.27898
64.35	4.31379
64.5	5.97544
64.65	1.85945
64.8	3.22903
64.95	1.92344
65.1	0
