Measurement: Powder, Xray Data XY Processed
Mineral: Coquimbite
Rruff sample: R070666
Ideal chemistry: AlFe^3+^_3_(S^6+^O_4_)_6_(H_2_O)_12_6H_2_O
Locality: United Verde Mine, Jerome, Verde District, Black Hills (Black Hill Range), Yavapai County, Arizona, USA
Source: Michael Scott
Description: Massive, globular, chalky-white; associated with yellow copiapite
Diffraction sample description: Powder
Cell parameters: a: 10.9502(5) b: 10.9502(5) c: 17.0743(9) alpha: 90 beta: 90 gamma: 120 volume: 1773.0(2) crystal system: hexagonal
x	intensity
5	0
5.22	23.637
5.44	9.56486
5.66	17.6214
5.88	19.7372
6.1	0.023392
6.32	27.9188
6.54	7.23195
6.76	22.1228
6.98	1.06766
7.2	25.0707
7.42	18.716
7.64	20.7161
7.86	13.8241
8.08	14.8089
8.3	8.29612
8.52	23.1266
8.74	12.446
8.96	2.26725
9.18	80.3788
9.4	30.5129
9.62	15.994
9.84	26.9325
10.06	26.7203
10.28	126.691
10.5	124.222
10.72	65.6509
10.94	8.03996
11.16	14.1035
11.38	22.2109
11.6	1.08285
11.82	29.3432
12.04	23.0761
12.26	24.866
12.48	20.0933
12.7	25.6678
12.92	26.7977
13.14	18.2701
13.36	4.62308
13.58	20.0179
13.8	27.8042
14.02	20.4862
14.24	31.6311
14.46	24.9204
14.68	10.7012
14.9	0.245865
15.12	23.9657
15.34	29.9681
15.56	18.5592
15.78	9.35233
16	47.9617
16.22	103.972
16.44	20.7769
16.66	8.17503
16.88	10.3987
17.1	13.5004
17.32	27.4459
17.54	30.38
17.76	15.0635
17.98	9.36885
18.2	24.2775
18.42	3.41885
18.64	88.3681
18.86	12.4251
19.08	48.8376
19.3	104.847
19.52	30.2541
19.74	1.86437
19.96	10.3835
20.18	19.2811
20.4	24.3789
20.62	24.6075
20.84	21.0145
21.06	28.757
21.28	19.216
21.5	2.68501
21.72	9.20415
21.94	20.6676
22.16	3.94408
22.38	13.0424
22.6	24.5292
22.82	28.9488
23.04	15.2522
23.26	14.7954
23.48	25.1309
23.7	26.6988
23.92	13.0377
24.14	10.6231
24.36	150.057
24.58	10.7013
24.8	69.3042
25.02	2.742
25.24	21.2877
25.46	38.876
25.68	28.1754
25.9	12.0202
26.12	8.09817
26.34	146.4
26.56	41.7175
26.78	9.84951
27	19.0895
27.22	6.07222
27.44	7.43478
27.66	25.2383
27.88	10.6005
28.1	32.9038
28.32	1.77521
28.54	27.9347
28.76	53.7742
28.98	6.71601
29.2	3.95521
29.42	131.631
29.64	13.3106
29.86	10.9698
30.08	42.1982
30.3	17.21
30.52	13.9768
30.74	7.63005
30.96	0.013046
31.18	9.69263
31.4	26.7537
31.62	17.1879
31.84	23.9152
32.06	13.9353
32.28	140.172
32.5	59.1318
32.72	4.88154
32.94	7.44582
33.16	7.53155
33.38	6.62282
33.6	24.8871
33.82	3.99471
34.04	19.4243
34.26	17.2749
34.48	1.43399
34.7	3.31146
34.92	10.1707
35.14	23.9561
35.36	75.0849
35.58	32.6994
35.8	27.1805
36.02	8.91027
36.24	4.27241
36.46	24.4352
36.68	7.19691
36.9	11.7502
37.12	0.794868
37.34	30.7218
37.56	17.8619
37.78	16.7855
38	15.322
38.22	6.66887
38.44	29.5892
38.66	5.56103
38.88	22.8444
39.1	47.9419
39.32	16.2012
39.54	11.3227
39.76	23.2842
39.98	13.0478
40.2	2.61895
40.42	5.00958
40.64	11.7975
40.86	9.00528
41.08	8.34689
41.3	39.424
41.52	14.9092
41.74	17.3503
41.96	16.4213
42.18	2.25488
42.4	22.007
42.62	19.2249
42.84	19.1241
43.06	28.4517
43.28	18.0163
43.5	23.1311
43.72	11.7862
43.94	12.4273
44.16	16.544
44.38	18.4596
44.6	8.28865
44.82	21.1557
45.04	24.7334
45.26	9.81149
45.48	32.3156
45.7	7.83938
45.92	56.2102
46.14	12.4561
46.36	14.4344
46.58	31.8096
46.8	23.6119
47.02	6.0788
47.24	33.5684
47.46	13.9616
47.68	7.72675
47.9	23.1681
48.12	22.8885
48.34	9.86937
48.56	10.768
48.78	30.5004
49	22.9239
49.22	1.30113
49.44	2.04066
49.66	38.0633
49.88	18.3137
50.1	3.42667
50.32	9.74835
50.54	12.3418
50.76	13.9638
50.98	19.8647
51.2	32.1309
51.42	16.1741
51.64	54.3321
51.86	10.7469
52.08	12.9129
52.3	4.08814
52.52	20.1811
52.74	37.2802
52.96	16.2655
53.18	14.3241
53.4	1.84338
53.62	10.4781
53.84	18.8877
54.06	0.062347
54.28	16.5729
54.5	51.664
54.72	26.1164
54.94	18.2423
55.16	19.3862
55.38	24.6473
55.6	3.83202
55.82	7.66844
56.04	23.9479
56.26	21.8433
56.48	20.8106
56.7	3.42725
56.92	9.09497
57.14	16.967
57.36	25.3793
57.58	10.9213
57.8	26.2194
58.02	18.1477
58.24	9.6646
58.46	18.8122
58.68	5.3304
58.9	17.5396
59.12	24.8794
59.34	16.595
59.56	17.5956
59.78	19.7943
60	2.57162
60.22	18.9911
60.44	16.1167
60.66	2.04048
60.88	28.5515
61.1	8.82362
61.32	26.7952
61.54	0.127884
61.76	28.9151
61.98	19.7174
62.2	18.4234
62.42	23.3034
62.64	24.0407
62.86	3.50841
63.08	30.4608
63.3	14.4955
63.52	22.6069
63.74	4.0921
63.96	16.91
64.18	5.77504
64.4	10.7425
64.62	9.37734
64.84	20.3365
65.06	28.6692
65.28	22.5838
65.5	22.692
65.72	0.18457
65.94	25.0058
66.16	5.14407
66.38	13.2912
66.6	17.2052
66.82	16.4489
67.04	2.56252
67.26	18.8399
67.48	7.59551
67.7	15.7757
67.92	15.8503
68.14	10.9522
68.36	14.1567
68.58	2.59736
68.8	14.5087
69.02	9.98929
69.24	8.81694
69.46	17.7657
69.68	23.6605
69.9	34.2119
70.12	24.0426
70.34	20.818
70.56	30.1273
70.78	6.79856
71	5.6589
71.22	11.7861
71.44	14.2082
71.66	2.65734
71.88	25.1723
72.1	3.27461
72.32	19.3234
72.54	20.5007
72.76	11.3427
72.98	5.42011
73.2	24.7392
73.42	9.718
73.64	20.7795
73.86	12.1474
74.08	31.5739
74.3	1.22677
74.52	32.7267
74.74	2.5048
74.96	13.8359
75.18	11.9935
75.4	20.1239
75.62	1.28728
75.84	25.2235
76.06	14.8167
76.28	6.85495
76.5	11.0078
76.72	13.2503
76.94	11.4238
77.16	16.4261
77.38	25.5482
77.6	8.58179
77.82	15.1436
78.04	15.5378
78.26	7.68476
78.48	3.48905
78.7	23.6718
78.92	2.305
79.14	14.4215
79.36	13.9615
79.58	14.6738
79.8	14.5562
80.02	0.469879
80.24	18.0747
80.46	17.6716
80.68	14.6139
80.9	8.66477
81.12	1.68867
81.34	14.4587
81.56	10.4239
81.78	12.4499
82	31.7736
82.22	15.04
82.44	14.5327
82.66	5.32036
82.88	8.53322
83.1	15.6262
83.32	18.7832
83.54	10.6633
83.76	28.7487
83.98	27.0337
84.2	20.2408
84.42	29.1282
84.64	21.3453
84.86	1.57192
85.08	15.7902
85.3	6.20338
85.52	3.90832
85.74	5.17288
85.96	10.7177
86.18	7.59043
86.4	14.2959
86.62	1.28819
86.84	0.36554
87.06	11.131
87.28	5.94982
87.5	18.1423
87.72	1.87751
87.94	19.1761
88.16	7.47133
88.38	2.48437
88.6	11.5979
88.82	9.87017
89.04	14.8631
89.26	26.5718
89.48	16.9037
89.7	18.9705
89.92	22.1464
