Measurement: Powder, Xray Data XY Processed
Mineral: Cordierite
Rruff sample: R040082
Ideal chemistry: Mg_2_Al_3_(AlSi_5_)O_18_
Locality: Madagascar
Source: University of Arizona Mineral Museum
Description: Dark gray coarsely crystalline massive
Diffraction sample description: Powder
Measured chemistry: (Mg_1.60_Fe^2+^_0.39_Mn_0.01_)_Σ=2_Al_4.00_(Si_4.95_Al_0.05_)_Σ=5_O_18_·1.05H_2_O·Na_0.05_ ; H_2_O estimated by difference and verified by Raman spectroscopy
Cell parameters: a: 17.0954(5) b: 9.7354(4) c: 9.3326(2) alpha: 90. beta: 90. gamma: 90. volume: 1553.25(7) crystal system: orthorhombic
x	intensity
5	0
5.22	4.63
5.44	2.86
5.66	16
5.88	11.981
6.1	0.608
6.32	33.274
6.54	24.638
6.76	2.013
6.98	19.184
7.2	16.715
7.42	8.958
7.64	14.429
7.86	11.921
8.08	12.27
8.3	3.954
8.52	5.731
8.74	20.67
8.96	15.122
9.18	0.663
9.4	32.97
9.62	10.203
9.84	3.216
10.06	30.176
10.28	280.543
10.5	1216.02
10.72	29.524
10.94	12.409
11.16	3.832
11.38	7.374
11.6	10.932
11.82	14.941
12.04	10.905
12.26	23.616
12.48	29.046
12.7	14.482
12.92	15.769
13.14	17.111
13.36	11.909
13.58	7.078
13.8	0.707
14.02	1.55
14.24	17.383
14.46	17.814
14.68	25.043
14.9	5.224
15.12	7.83
15.34	3.929
15.56	7.408
15.78	9.125
16	13.148
16.22	14.073
16.44	18.345
16.66	11.862
16.88	13.486
17.1	15.958
17.32	20.693
17.54	12.396
17.76	8.798
17.98	47.811
18.2	40.949
18.42	7.471
18.64	1.947
18.86	10.907
19.08	82.676
19.3	3.338
19.52	15.082
19.74	8.738
19.96	6.656
20.18	9.329
20.4	15.018
20.62	5.518
20.84	13.555
21.06	12.619
21.28	5.745
21.5	28.809
21.72	380.899
21.94	16.797
22.16	11.586
22.38	15.367
22.6	22.377
22.82	9.023
23.04	17.406
23.26	16.853
23.48	4.608
23.7	8.893
23.92	9.03
24.14	3.697
24.36	19.749
24.58	14.525
24.8	19.216
25.02	6.164
25.24	14.899
25.46	21.374
25.68	33.995
25.9	9.112
26.12	22.221
26.34	613.493
26.56	81
26.78	15.725
27	11.521
27.22	2.498
27.44	4.548
27.66	14.534
27.88	5.227
28.1	19.517
28.32	324.812
28.54	529.096
28.76	8.535
28.98	5.59
29.2	45.219
29.42	363.768
29.64	174.39
29.86	18.976
30.08	5.38
30.3	8.144
30.52	3.351
30.74	3.066
30.96	11.126
31.18	15.118
31.4	35.993
31.62	30.272
31.84	5.835
32.06	12.59
32.28	3.147
32.5	20.099
32.72	0.962
32.94	1.983
33.16	14.414
33.38	18.753
33.6	8.776
33.82	59.203
34.04	67.557
34.26	15.957
34.48	4.969
34.7	8.119
34.92	22.852
35.14	19.594
35.36	13.093
35.58	10.397
35.8	15.819
36.02	17.158
36.24	15.272
36.46	26.004
36.68	14.108
36.9	39.523
37.12	13.986
37.34	13.262
37.56	10.025
37.78	12.063
38	14.18
38.22	12.266
38.44	20.539
38.66	79.286
38.88	7.616
39.1	10.597
39.32	35.508
39.54	5.34
39.76	9.354
39.98	9.242
40.2	15.063
40.42	20.02
40.64	20.05
40.86	18.279
41.08	13.799
41.3	4.5
41.52	32.292
41.74	1.848
41.96	39.047
42.18	0.098
42.4	13.574
42.62	21.185
42.84	27.029
43.06	26.44
43.28	31.597
43.5	12.479
43.72	8.932
43.94	21.035
44.16	27.573
44.38	10.83
44.6	17.325
44.82	2.536
45.04	15.553
45.26	23.174
45.48	13.586
45.7	3.674
45.92	21.536
46.14	6.28
46.36	28.205
46.58	22.338
46.8	26.535
47.02	11.291
47.24	11.825
47.46	24.64
47.68	18.097
47.9	14.677
48.12	2.824
48.34	28.07
48.56	9.769
48.78	28.847
49	3.351
49.22	7.2
49.44	38.144
49.66	0.329
49.88	3.746
50.1	4.284
50.32	5.88
50.54	43.155
50.76	128.686
50.98	18.226
51.2	4.206
51.42	12.412
51.64	0.978
51.86	18.654
52.08	4.891
52.3	6.792
52.52	14.347
52.74	14.164
52.96	0.007
53.18	15.18
53.4	10.37
53.62	14.024
53.84	4.108
54.06	18.132
54.28	53.639
54.5	39.281
54.72	15.726
54.94	20.93
55.16	12.028
55.38	38.331
55.6	18.119
55.82	8.154
56.04	10.689
56.26	4.342
56.48	5.047
56.7	19.899
56.92	0.081
57.14	21.64
57.36	19.842
57.58	17.466
57.8	7.797
58.02	24.688
58.24	11.324
58.46	14.398
58.68	3.197
58.9	9.744
59.12	3.276
59.34	19.697
59.56	11.415
59.78	23.401
60	12.728
60.22	5.977
60.44	12.182
60.66	17.622
60.88	3.949
61.1	7.342
61.32	13.783
61.54	3.66
61.76	1.163
61.98	31.162
62.2	0.585
62.42	18.429
62.64	17.208
62.86	5.275
63.08	8.618
63.3	1.306
63.52	10.536
63.74	26.159
63.96	2.65
64.18	3.747
64.4	12.741
64.62	8.605
64.84	8.794
65.06	19.041
65.28	8.203
65.5	7.377
65.72	4.485
65.94	2.382
66.16	7.392
66.38	10.617
66.6	8.58
66.82	14.233
67.04	10.184
67.26	17.951
67.48	22.019
67.7	6.533
67.92	17.17
68.14	15.153
68.36	7.346
68.58	5.698
68.8	8.965
69.02	38.152
69.24	1.228
69.46	1.319
69.68	25.745
69.9	8.497
70.12	4.954
70.34	13.367
70.56	11.106
70.78	2.793
71	27.825
71.22	22.141
71.44	22.431
71.66	21.345
71.88	15.61
72.1	12.166
72.32	8.194
72.54	3.456
72.76	4.698
72.98	7.17
73.2	4.636
73.42	10.048
73.64	18.349
73.86	15.652
74.08	1.842
74.3	16.319
74.52	0.035
74.74	11.388
74.96	35.836
75.18	14.387
75.4	7.016
75.62	11.198
75.84	8.952
76.06	11.033
76.28	13.183
76.5	16.358
76.72	13.264
76.94	3.466
77.16	9.513
77.38	8.262
77.6	20.356
77.82	4.134
78.04	13.302
78.26	11.587
78.48	8.461
78.7	13.342
78.92	2.188
79.14	5.016
79.36	17.346
79.58	4.537
79.8	6.603
80.02	3.212
80.24	10.174
80.46	0.853
80.68	0.74
80.9	0.26
81.12	6.939
81.34	2.801
81.56	15.309
81.78	14.439
82	13.376
82.22	1.217
82.44	30.04
82.66	98.407
82.88	22.231
83.1	6.707
83.32	7.33
83.54	8.475
83.76	11.988
83.98	5.258
84.2	11.612
84.42	3.633
84.64	2.575
84.86	17.642
85.08	10.108
85.3	14.876
85.52	8.684
85.74	9.441
85.96	12.815
86.18	17.733
86.4	6.679
86.62	14.889
86.84	24.173
87.06	4.321
87.28	5.629
87.5	7.587
87.72	23.001
87.94	16.415
88.16	14.2
88.38	8.278
88.6	11.439
88.82	21.484
89.04	11.126
89.26	3.561
89.48	8.444
89.7	7.918
89.92	8.606
