Measurement: Powder, Xray Data XY Processed
Mineral: Cordierite
Rruff sample: R040084
Ideal chemistry: Mg_2_Al_3_(AlSi_5_)O_18_
Locality: Norway
Source: University of Arizona Mineral Museum
Description: Purple coarsely crystalline massive
Diffraction sample description: Powder
Measured chemistry: (Mg_1.88_Fe^2+^_0.11_Ca_0.01_)_Σ=2_(Al_3.95_Fe^3+^_0.05_)_Σ=4_(Si_4.96_Al_0.04_)_Σ=5_O_18_·0.90H_2_O·Na_0.04_ ; H_2_O estimated by difference and verified by Raman spectroscopy
Cell parameters: a: 17.0718(6) b: 9.7227(4) c: 9.3440(4) alpha: 90. beta: 90. gamma: 90. volume: 1550.97(8) crystal system: orthorhombic
x	intensity
5	0
5.22	10.631
5.44	0.79
5.66	16.227
5.88	1.916
6.1	21.18
6.32	10.483
6.54	13.82
6.76	10.256
6.98	16.573
7.2	9.622
7.42	24.226
7.64	13.543
7.86	10.792
8.08	1.754
8.3	22.996
8.52	12.535
8.74	2.208
8.96	8.077
9.18	5.73
9.4	25.036
9.62	13.179
9.84	1.75
10.06	17.841
10.28	173.903
10.5	2229.81
10.72	26.735
10.94	14.174
11.16	13.584
11.38	16.07
11.6	9.637
11.82	4.24
12.04	10.29
12.26	19.279
12.48	13.018
12.7	20.383
12.92	10.711
13.14	13.163
13.36	12.055
13.58	5.733
13.8	9.446
14.02	4.739
14.24	20.621
14.46	0.412
14.68	19.88
14.9	10.162
15.12	15.319
15.34	12.547
15.56	9.728
15.78	12.15
16	18.067
16.22	7.479
16.44	7.37
16.66	11.261
16.88	2.014
17.1	3.177
17.32	6.691
17.54	16.251
17.76	10.953
17.98	38.579
18.2	21.213
18.42	14.061
18.64	3.573
18.86	15.292
19.08	81.699
19.3	5.664
19.52	8.12
19.74	12.111
19.96	0.844
20.18	10.313
20.4	13.275
20.62	3.942
20.84	38.827
21.06	18.526
21.28	10.007
21.5	9.199
21.72	501.602
21.94	20.264
22.16	19.041
22.38	11.348
22.6	16.328
22.82	2.795
23.04	10.006
23.26	7.634
23.48	2.545
23.7	9.354
23.92	4.401
24.14	6.442
24.36	17.904
24.58	6.006
24.8	2.072
25.02	9.841
25.24	18.528
25.46	18.371
25.68	23.98
25.9	15.84
26.12	20.178
26.34	673.986
26.56	161.361
26.78	10.206
27	6.974
27.22	0.025
27.44	6.808
27.66	9.495
27.88	27.454
28.1	0.965
28.32	285.514
28.54	436.957
28.76	9.751
28.98	21.7
29.2	28.109
29.42	621.299
29.64	708.603
29.86	15.212
30.08	9.677
30.3	1.956
30.52	13.598
30.74	10.112
30.96	7.857
31.18	8.118
31.4	21.155
31.62	11.977
31.84	7.043
32.06	4.325
32.28	6.786
32.5	12.348
32.72	7.66
32.94	24.376
33.16	0.125
33.38	12.174
33.6	17.107
33.82	222.378
34.04	50.314
34.26	8.635
34.48	9.841
34.7	8.007
34.92	6.674
35.14	3.323
35.36	17.796
35.58	2.102
35.8	12.623
36.02	2.908
36.24	11.093
36.46	6.527
36.68	39.991
36.9	13.256
37.12	16.464
37.34	9.605
37.56	10.433
37.78	6.413
38	16.521
38.22	5.308
38.44	18.001
38.66	94.107
38.88	1.667
39.1	0.052
39.32	19.557
39.54	31.262
39.76	27.273
39.98	0.668
40.2	12.13
40.42	11.849
40.64	3.998
40.86	3.086
41.08	2.96
41.3	0.373
41.52	57.744
41.74	6.79
41.96	12.13
42.18	6.524
42.4	2.052
42.62	9.944
42.84	84.287
43.06	73.319
43.28	141.452
43.5	16.746
43.72	10.67
43.94	5.855
44.16	9.115
44.38	6.473
44.6	3.867
44.82	3.18
45.04	4.943
45.26	8.923
45.48	1.079
45.7	12.836
45.92	10.339
46.14	15.681
46.36	15.266
46.58	47.312
46.8	45.769
47.02	46.867
47.24	37.811
47.46	0.516
47.68	13.712
47.9	3.227
48.12	3.826
48.34	45.555
48.56	27.604
48.78	26.042
49	17.693
49.22	9.88
49.44	33.354
49.66	8.962
49.88	23.601
50.1	17.258
50.32	46.342
50.54	68.996
50.76	94.085
50.98	5.59
51.2	10.871
51.42	11.847
51.64	8.043
51.86	3.21
52.08	11.336
52.3	11.71
52.52	5.333
52.74	2.423
52.96	16.934
53.18	4.181
53.4	12.904
53.62	32.373
53.84	31.215
54.06	13.658
54.28	113.601
54.5	66.285
54.72	3.303
54.94	2.516
55.16	2.654
55.38	29.51
55.6	13.742
55.82	13.169
56.04	10.168
56.26	9.916
56.48	8.235
56.7	5.856
56.92	9.657
57.14	31.891
57.36	6.751
57.58	6.037
57.8	27.749
58.02	58.9
58.24	25.763
58.46	0.534
58.68	8.639
58.9	13.222
59.12	10.336
59.34	34.585
59.56	13.813
59.78	3.775
60	22.734
60.22	11.489
60.44	16.281
60.66	8.255
60.88	5.728
61.1	12.712
61.32	0.089
61.54	11.494
61.76	17.622
61.98	289.408
62.2	59.759
62.42	16.73
62.64	10.677
62.86	3.921
63.08	0.87
63.3	10.316
63.52	10.377
63.74	30.475
63.96	20.746
64.18	4.2
64.4	48.175
64.62	37.383
64.84	16.896
65.06	7.404
65.28	4.748
65.5	4.124
65.72	12.173
65.94	2.549
66.16	0.928
66.38	18.349
66.6	10.993
66.82	22.403
67.04	8.252
67.26	12.702
67.48	4.009
67.7	8.541
67.92	4.94
68.14	14.706
68.36	6.449
68.58	5.387
68.8	10.815
69.02	22.554
69.24	6.248
69.46	21.639
69.68	52.861
69.9	42.1
70.12	8.191
70.34	7.577
70.56	15.529
70.78	3.668
71	15.405
71.22	11.837
71.44	6.021
71.66	9.357
71.88	18.734
72.1	8.049
72.32	2.398
72.54	7.361
72.76	19.731
72.98	4.273
73.2	4.773
73.42	6.176
73.64	11.735
73.86	1.046
74.08	1.666
74.3	14.607
74.52	11.269
74.74	11.267
74.96	0.184
75.18	7.482
75.4	0.261
75.62	13.226
75.84	17.409
76.06	6.098
76.28	4.267
76.5	9.462
76.72	10.855
76.94	16.184
77.16	13.635
77.38	25.492
77.6	12.663
77.82	11.608
78.04	8.293
78.26	2.83
78.48	0.06
78.7	7.874
78.92	2.556
79.14	9
79.36	3.924
79.58	12.253
79.8	6.953
80.02	15.123
80.24	6.118
80.46	1.387
80.68	1.746
80.9	25.222
81.12	10.09
81.34	10.327
81.56	14.49
81.78	11.592
82	10.986
82.22	2.449
82.44	15.81
82.66	9.232
82.88	6.8
83.1	5.615
83.32	1.021
83.54	9.342
83.76	25.655
83.98	10.388
84.2	5.165
84.42	6.828
84.64	7.753
84.86	5.888
85.08	15.633
85.3	2.246
85.52	10.868
85.74	0.195
85.96	5.102
86.18	2.038
86.4	14.731
86.62	14.034
86.84	0.666
87.06	9.831
87.28	12.099
87.5	4.422
87.72	4.778
87.94	12.146
88.16	2.089
88.38	12.662
88.6	9.963
88.82	3.098
89.04	11.41
89.26	3.601
89.48	4.782
89.7	22.436
89.92	3.628
