Measurement: Powder, Xray Data XY Processed
Mineral: Corkite
Rruff sample: R050522
Ideal chemistry: Pb^2+^Fe^3+^_3_(S^6+^O_4_)(PO_4_)(OH)_6_
Locality: near Dernbach, Nassau, Germany
Source: University of Arizona Mineral Museum
Description: Black pseudo-cubo-octahedral single crystals, associated with reniform goethite balls
Diffraction sample description: Single crystal, powder profile is calculated
Measured chemistry: Pb_1.00_(Fe^3+^_2.80_Fe^2+^_0.15_Al_0.05_)_Σ=3_[(S_0.58_P_0.42_)_Σ=1_O_4_]_2_(OH)_6_
Cell parameters: a: 7.2894(9) b: 7.2894(9) c: 16.863(1) alpha: 90 beta: 90 gamma: 120 volume: 776.0(2) crystal system: hexagonal
x	intensity
5	0
5.22	0
5.44	0
5.66	0
5.88	0
6.1	0
6.32	0
6.54	0
6.76	0
6.98	0
7.2	0
7.42	0
7.64	0
7.86	0
8.08	0
8.3	0
8.52	0
8.74	0
8.96	0
9.18	0
9.4	0
9.62	0
9.84	0
10.06	0
10.28	0
10.5	0
10.72	0
10.94	0
11.16	0
11.38	0
11.6	0
11.82	0
12.04	0
12.26	0
12.48	0
12.7	0
12.92	0
13.14	0
13.36	0
13.58	0
13.8	0
14.02	0
14.24	0
14.46	0
14.68	0
14.9	2.648
15.12	0.014
15.34	0
15.56	0
15.78	8.581
16	0
16.22	0
16.44	0
16.66	0
16.88	0
17.1	0
17.32	0
17.54	1.776
17.76	0
17.98	0
18.2	0
18.42	0
18.64	0
18.86	0
19.08	0
19.3	0
19.52	0
19.74	0
19.96	0
20.18	0
20.4	0
20.62	0
20.84	0
21.06	0
21.28	0
21.5	0
21.72	0
21.94	0
22.16	0
22.38	0
22.6	0
22.82	0
23.04	0
23.26	0
23.48	0
23.7	0
23.92	0
24.14	0
24.36	14.817
24.58	0.007
24.8	0
25.02	0
25.24	0
25.46	3.319
25.68	0
25.9	0
26.12	0
26.34	0
26.56	0
26.78	0
27	0
27.22	0
27.44	0
27.66	0
27.88	0
28.1	0
28.32	0
28.54	0
28.76	2.677
28.98	0
29.2	84.897
29.42	0
29.64	0
29.86	0
30.08	1.7
30.3	7.336
30.52	0
30.74	0
30.96	0
31.18	0
31.4	0
31.62	0
31.84	12.707
32.06	0
32.28	0
32.5	0
32.72	0
32.94	0
33.16	0
33.38	0
33.6	0
33.82	0
34.04	0
34.26	0
34.48	0
34.7	0
34.92	0
35.14	0
35.36	0.001
35.58	7.88
35.8	0
36.02	0
36.24	0
36.46	0
36.68	0
36.9	0
37.12	0
37.34	0
37.56	0
37.78	0
38	1.38
38.22	0.514
38.44	0
38.66	0
38.88	0
39.1	0.426
39.32	3.132
39.54	0
39.76	0
39.98	7.031
40.2	1.097
40.42	0.52
40.64	2.541
40.86	0
41.08	0
41.3	0
41.52	0
41.74	0
41.96	0
42.18	0
42.4	0
42.62	0
42.84	0.015
43.06	1.515
43.28	0
43.5	1.228
43.72	0.448
43.94	0
44.16	0
44.38	0
44.6	0
44.82	0
45.04	0
45.26	0.063
45.48	0.089
45.7	0
45.92	0.277
46.14	11.292
46.36	0
46.58	2.743
46.8	0.048
47.02	0
47.24	0
47.46	0.004
47.68	0
47.9	0
48.12	0
48.34	0
48.56	0.006
48.78	0
49	0
49.22	0
49.44	0
49.66	0
49.88	0.01
50.1	4.12
50.32	0
50.54	0
50.76	0
50.98	0
51.2	0
51.42	0
51.64	0
51.86	0
52.08	0.739
52.3	1.161
52.52	1.58
52.74	0.651
52.96	0.127
53.18	0
53.4	0.003
53.62	0
53.84	0
54.06	4.826
54.28	0.155
54.5	0.502
54.72	0
54.94	0.009
55.16	1.247
55.38	0
55.6	0
55.82	0
56.04	0
56.26	0
56.48	0.801
56.7	0.006
56.92	0.099
57.14	0.003
57.36	0
57.58	0
57.8	0
58.02	0
58.24	0
58.46	0.014
58.68	0.164
58.9	0.092
59.12	0
59.34	0.057
59.56	2.864
59.78	0.187
60	0
60.22	0
60.44	2.037
60.66	4.622
60.88	0
61.1	0
61.32	0
61.54	0
61.76	0
61.98	0
62.2	0.035
62.42	5.248
62.64	0.314
62.86	1.489
63.08	0.094
63.3	0
63.52	0
63.74	0
63.96	0
64.18	0
64.4	0.002
64.62	0.094
64.84	0.001
65.06	0
65.28	0.091
65.5	0.059
65.72	0
65.94	1.456
66.16	0.156
66.38	0.012
66.6	0.054
66.82	3.427
67.04	0.757
67.26	0
67.48	0
67.7	0
67.92	0.374
68.14	0.471
68.36	0.004
68.58	0.007
68.8	0
69.02	0
69.24	0
69.46	0
69.68	0
69.9	0
70.12	0
70.34	3.694
70.56	0.954
70.78	0.017
71	0.005
71.22	0
71.44	0.006
71.66	0.002
71.88	0.116
72.1	0.115
72.32	0.014
72.54	0.004
72.76	0
72.98	0
73.2	0
73.42	0.032
73.64	0.011
73.86	0
74.08	0
74.3	0
74.52	0.013
74.74	0.049
74.96	0.016
75.18	0.174
75.4	0.14
75.62	0.027
75.84	0
76.06	0.001
76.28	0.005
76.5	0.003
76.72	2.787
76.94	1.445
77.16	0.025
77.38	0.004
77.6	0
77.82	0
78.04	0
78.26	0
78.48	0
78.7	1.403
78.92	0.575
79.14	0.087
79.36	0.05
79.58	0
79.8	0.012
80.02	0.002
80.24	0.001
80.46	0
80.68	0.081
80.9	0.483
81.12	0.24
81.34	0.068
81.56	0.022
81.78	0
82	0
82.22	0
82.44	0.638
82.66	0.14
82.88	0
83.1	0
83.32	0
83.54	0
83.76	0.057
83.98	0.2
84.2	0.411
84.42	0.003
84.64	0.015
84.86	0
85.08	1.56
85.3	1.013
85.52	0
85.74	0.002
85.96	0
86.18	0.001
86.4	0.466
86.62	0.135
86.84	0.013
87.06	0.211
87.28	0.039
87.5	0.053
87.72	0.044
87.94	1.285
88.16	0.788
88.38	0
88.6	0
88.82	0.005
89.04	0.319
89.26	0.127
89.48	0
89.7	0
89.92	0
