Measurement: Powder, Xray Data XY Processed
Mineral: Cornwallite
Rruff sample: R050469
Ideal chemistry: Cu^2+^_5_(As^5+^O_4_)_2_(OH)_4_
Locality: Carissa mine, Tintic District, Utah, USA
Source: University of Arizona Mineral Museum
Description: Dark green botryoidal crust
Diffraction sample description: Powder
Measured chemistry: (Cu_4.98_Ca_0.02_)_Î£=5_(As_1.00_O_4_)_2_(OH)_4_ ; OH estimated by difference and charge balance
Cell parameters: a: 4.6067(7) b: 5.772(4) c: 17.409(3) alpha: 90 beta: 91.95(1) gamma: 90 volume: 462.6(0) crystal system: monoclinic
x	intensity
5	0
5.22	16.726
5.44	6.551
5.66	20.21
5.88	8.177
6.1	14.246
6.32	2.393
6.54	12.981
6.76	15.532
6.98	9.814
7.2	18.122
7.42	7.553
7.64	15.932
7.86	9.237
8.08	0.103
8.3	9.638
8.52	1.407
8.74	9.522
8.96	33.978
9.18	11.713
9.4	7.001
9.62	15.577
9.84	15.16
10.06	13.241
10.28	29.077
10.5	12.121
10.72	7.643
10.94	0.194
11.16	23.037
11.38	1.273
11.6	1.185
11.82	5.664
12.04	0.014
12.26	19.742
12.48	11.663
12.7	6.057
12.92	0.462
13.14	10.336
13.36	0.372
13.58	5.03
13.8	7.315
14.02	10.069
14.24	26.436
14.46	14.376
14.68	1.63
14.9	20.026
15.12	8.94
15.34	13.784
15.56	17.074
15.78	3.711
16	3.465
16.22	34.75
16.44	10.782
16.66	6.624
16.88	2.057
17.1	3.258
17.32	0.825
17.54	5.337
17.76	9.763
17.98	22.627
18.2	9.812
18.42	21.279
18.64	14.445
18.86	4.335
19.08	15.305
19.3	154.299
19.52	7.302
19.74	11.139
19.96	4.849
20.18	29.833
20.4	0.722
20.62	0.075
20.84	0.655
21.06	3.134
21.28	0.376
21.5	2.019
21.72	6.349
21.94	29.475
22.16	2.096
22.38	0.299
22.6	11.942
22.82	16.869
23.04	0.689
23.26	10.257
23.48	0.958
23.7	5.107
23.92	0.951
24.14	24.819
24.36	27.33
24.58	0.72
24.8	7.919
25.02	40.912
25.24	109.692
25.46	59.838
25.68	7.592
25.9	22.089
26.12	4.406
26.34	0.527
26.56	3.122
26.78	30.744
27	0.074
27.22	6.288
27.44	9.648
27.66	85.865
27.88	65.662
28.1	11.038
28.32	16.507
28.54	23.175
28.76	124.317
28.98	39.578
29.2	22.966
29.42	19.074
29.64	73.683
29.86	11.072
30.08	8.207
30.3	10.989
30.52	1.129
30.74	0.908
30.96	21.145
31.18	28.24
31.4	26.482
31.62	13.185
31.84	10.603
32.06	34.656
32.28	21.719
32.5	12.823
32.72	37.339
32.94	30.935
33.16	16.541
33.38	3.152
33.6	5.853
33.82	0.914
34.04	3.461
34.26	0.023
34.48	7.942
34.7	31.384
34.92	16.886
35.14	7.673
35.36	35.993
35.58	38.513
35.8	0.925
36.02	79.716
36.24	21.878
36.46	76.829
36.68	11.485
36.9	24.578
37.12	10.969
37.34	73.167
37.56	34.993
37.78	28.44
38	19.955
38.22	10.828
38.44	27.43
38.66	1.799
38.88	25.297
39.1	34.643
39.32	24.027
39.54	28.912
39.76	4.261
39.98	3.295
40.2	19.561
40.42	1.205
40.64	18.422
40.86	26.414
41.08	18.725
41.3	3.271
41.52	33.567
41.74	15.248
41.96	18.467
42.18	31.369
42.4	0.748
42.62	0.847
42.84	25.584
43.06	13.396
43.28	2.584
43.5	1.186
43.72	26.925
43.94	21.435
44.16	0.591
44.38	13.523
44.6	23.225
44.82	17.025
45.04	9.454
45.26	6.049
45.48	22.808
45.7	4.542
45.92	12.509
46.14	19.375
46.36	2.386
46.58	3.827
46.8	10.526
47.02	0.333
47.24	14.418
47.46	21.895
47.68	20.468
47.9	16.617
48.12	15.731
48.34	17.828
48.56	10.557
48.78	14.048
49	0.316
49.22	5.299
49.44	15.789
49.66	18.515
49.88	28.477
50.1	16.807
50.32	0.698
50.54	9.78
50.76	37.719
50.98	12.457
51.2	2.185
51.42	7.181
51.64	18.177
51.86	1.14
52.08	10.057
52.3	6.473
52.52	5.518
52.74	21.444
52.96	10.675
53.18	12.994
53.4	1.721
53.62	11.033
53.84	1.441
54.06	8.427
54.28	15.363
54.5	48.409
54.72	17.007
54.94	1.375
55.16	6.277
55.38	8.708
55.6	6.86
55.82	41.672
56.04	25.001
56.26	13.01
56.48	10.955
56.7	0.242
56.92	5.335
57.14	10.481
57.36	18.86
57.58	9.133
57.8	22.4
58.02	26.619
58.24	2.385
58.46	6.296
58.68	0.758
58.9	40.291
59.12	1.407
59.34	5.768
59.56	11.035
59.78	0.933
60	19.407
60.22	4.152
60.44	3.662
60.66	5.005
60.88	4.277
61.1	0.772
61.32	21.881
61.54	1.139
61.76	10.287
61.98	18.388
62.2	9.709
62.42	1.428
62.64	14.29
62.86	0.95
63.08	0.838
63.3	0.242
63.52	25.674
63.74	14.324
63.96	22.848
64.18	11.72
64.4	0.531
64.62	24.262
64.84	30.832
65.06	18.326
65.28	8.936
65.5	17.738
65.72	23.012
65.94	5.479
66.16	6.587
66.38	13.144
66.6	17.903
66.82	10.564
67.04	18.841
67.26	9.938
67.48	0.583
67.7	10.831
67.92	21.714
68.14	13.578
68.36	9.97
68.58	9.809
68.8	3.273
69.02	0.568
69.24	12.962
69.46	7.026
69.68	10.101
69.9	36.055
70.12	43.68
70.34	10.893
70.56	20.023
70.78	3.371
71	3.042
71.22	12.755
71.44	1.362
71.66	21.612
71.88	16.355
72.1	16.765
72.32	20.269
72.54	6.965
72.76	27.117
72.98	0.043
73.2	22.13
73.42	2.544
73.64	13.519
73.86	3.64
74.08	18.025
74.3	17.196
74.52	2.194
74.74	7.912
74.96	8.055
75.18	3.301
75.4	11.61
75.62	4.854
75.84	19.321
76.06	14.93
76.28	17.872
76.5	8.791
76.72	7.612
76.94	17.671
77.16	1.614
77.38	0.438
77.6	5.622
77.82	5.699
78.04	39.279
78.26	17.017
78.48	27.544
78.7	21.374
78.92	19.107
79.14	0.235
79.36	22.411
79.58	1.074
79.8	3.358
80.02	0.514
80.24	12.887
80.46	20.307
80.68	18.501
80.9	25.967
81.12	11.836
81.34	1.478
81.56	4.813
81.78	0.89
82	11.342
82.22	0.681
82.44	10.484
82.66	18.473
82.88	17.876
83.1	2.333
83.32	0.914
83.54	4.826
83.76	13.575
83.98	30.373
84.2	4.199
84.42	6.011
84.64	11.929
84.86	9.886
85.08	30
85.3	36.899
85.52	15.426
85.74	22.066
85.96	34.617
86.18	9.37
86.4	9.697
86.62	13.646
86.84	26.717
87.06	11.381
87.28	12.992
87.5	23.447
87.72	21.329
87.94	17.177
88.16	0.667
88.38	8.325
88.6	6.054
88.82	23.285
89.04	14.004
89.26	3.245
89.48	10.454
89.7	8.336
89.92	16.034
