Measurement: Powder, Xray Data XY Processed
Mineral: Corundum
Rruff sample: R060020
Ideal chemistry: Al_2_O_3_
Locality: Yogo Gulch, Montana, USA
Source: American Museum of Natural History
Description: Water rounded light blue fragment
Diffraction sample description: Powder
Measured chemistry: (Al_1.99_Fe^3+^_0.01_)_Î£=2_O_3_ ; Fe^3+^ by charge balance
Cell parameters: a: 4.76274(4) b: 4.76274(4) c: 13.0016(2) alpha: 90 beta: 90 gamma: 120 volume: 255.412(5) crystal system: hexagonal
x	intensity
5	0
5.22	1.126
5.44	15.97
5.66	10.527
5.88	11.311
6.1	6.622
6.32	7.272
6.54	9.969
6.76	8.666
6.98	2.42
7.2	15.496
7.42	10.584
7.64	5.34
7.86	16.158
8.08	19.836
8.3	11.696
8.52	6.103
8.74	2.715
8.96	6.422
9.18	14.467
9.4	7.006
9.62	3.493
9.84	2.666
10.06	11.239
10.28	1.057
10.5	3.639
10.72	5.74
10.94	5.212
11.16	1.557
11.38	5.953
11.6	1.251
11.82	8.971
12.04	5.207
12.26	8.473
12.48	11.446
12.7	2.237
12.92	12.264
13.14	11.422
13.36	6.374
13.58	6.401
13.8	7.583
14.02	2.894
14.24	5.975
14.46	8.102
14.68	8.245
14.9	2.452
15.12	2.501
15.34	11.68
15.56	8.796
15.78	2.856
16	6.044
16.22	9.274
16.44	0.218
16.66	7.368
16.88	5.547
17.1	5.572
17.32	10.541
17.54	6.607
17.76	11.625
17.98	1.734
18.2	6.756
18.42	7.774
18.64	3.657
18.86	6.74
19.08	5.776
19.3	7.697
19.52	9.705
19.74	5.832
19.96	13.902
20.18	14.954
20.4	3.996
20.62	14
20.84	3.921
21.06	1.923
21.28	1.289
21.5	8.139
21.72	5.898
21.94	4.804
22.16	6.565
22.38	3.528
22.6	10.42
22.82	1.126
23.04	0.217
23.26	7.152
23.48	2.309
23.7	0.216
23.92	3.624
24.14	2.55
24.36	0.408
24.58	2.27
24.8	2.002
25.02	0.871
25.24	3.025
25.46	29.791
25.68	207.927
25.9	12.934
26.12	5.172
26.34	12.388
26.56	7.575
26.78	10.795
27	4.999
27.22	7.225
27.44	5.967
27.66	9.961
27.88	6.159
28.1	4.923
28.32	3.966
28.54	2.943
28.76	4.912
28.98	7.959
29.2	6.017
29.42	11.025
29.64	6.13
29.86	4.027
30.08	5.947
30.3	8.963
30.52	11.988
30.74	2.107
30.96	7.013
31.18	5.011
31.4	0.35
31.62	1.394
31.84	5.529
32.06	8.25
32.28	5.112
32.5	5.315
32.72	3.367
32.94	8.105
33.16	2.032
33.38	2.545
33.6	0.826
33.82	1.377
34.04	10.862
34.26	3.176
34.48	6.765
34.7	9.407
34.92	26.236
35.14	224.069
35.36	65.172
35.58	13.229
35.8	9.322
36.02	9.765
36.24	5.472
36.46	6.707
36.68	3.95
36.9	3.159
37.12	2.368
37.34	11.293
37.56	11.477
37.78	126.486
38	35.319
38.22	6.584
38.44	8.284
38.66	5.276
38.88	5.498
39.1	3.626
39.32	3.738
39.54	2.661
39.76	7.695
39.98	2.756
40.2	1.944
40.42	0.043
40.64	0.646
40.86	1.51
41.08	9.543
41.3	1.763
41.52	11.033
41.74	8.666
41.96	3.352
42.18	1.007
42.4	3.367
42.62	3.922
42.84	8.657
43.06	6.589
43.28	89.558
43.5	285.789
43.72	20.906
43.94	7.267
44.16	6.031
44.38	8.499
44.6	5.913
44.82	11.472
45.04	4.839
45.26	2.26
45.48	3.604
45.7	9.64
45.92	5.523
46.14	6.454
46.36	9.44
46.58	5.087
46.8	9.028
47.02	4.059
47.24	5.035
47.46	6.017
47.68	3.09
47.9	4.433
48.12	0.548
48.34	4.415
48.56	0.514
48.78	0.479
49	4.44
49.22	7.418
49.44	6.866
49.66	10.727
49.88	0.576
50.1	4.283
50.32	5.908
50.54	6.643
50.76	4.459
50.98	2.326
51.2	3.03
51.42	9.779
51.64	4.233
51.86	2.249
52.08	0.668
52.3	11.791
52.52	115.768
52.74	88.853
52.96	12.1
53.18	10.187
53.4	9.224
53.62	9.588
53.84	1.027
54.06	0.737
54.28	9.755
54.5	1
54.72	1.962
54.94	9.973
55.16	9.441
55.38	8.22
55.6	5.408
55.82	6.217
56.04	1.177
56.26	1.369
56.48	6.979
56.7	13.36
56.92	4.921
57.14	6.833
57.36	52.516
57.58	203.227
57.8	42.362
58.02	10.427
58.24	6.648
58.46	7.814
58.68	7.206
58.9	2.442
59.12	2.667
59.34	12.121
59.56	8.369
59.78	11.69
60	3.463
60.22	0.498
60.44	2.114
60.66	4.238
60.88	12.21
61.1	10.711
61.32	43.127
61.54	10.311
61.76	8.288
61.98	4.364
62.2	5.417
62.42	4.719
62.64	8.009
62.86	1.071
63.08	4.152
63.3	7.292
63.52	1.959
63.74	8.723
63.96	2.683
64.18	6.322
64.4	5.188
64.62	3.992
64.84	10.964
65.06	6.456
65.28	1.16
65.5	4.807
65.72	4.231
65.94	3.003
66.16	3.971
66.38	35.638
66.6	63.466
66.82	29.115
67.04	13.817
67.26	7.255
67.48	0.167
67.7	8.226
67.92	13.272
68.14	72.485
68.36	77.737
68.58	25.027
68.8	6.405
69.02	10.78
69.24	1.208
69.46	1.331
69.68	1.83
69.9	1.42
70.12	8.835
70.34	5.167
70.56	11.474
70.78	3.696
71	7.576
71.22	7.395
71.44	6.614
71.66	7.782
71.88	2.113
72.1	1.787
72.32	3.527
72.54	2.715
72.76	12.813
72.98	7.664
73.2	2.529
73.42	6.34
73.64	1.784
73.86	2.145
74.08	6.069
74.3	6.008
74.52	7.57
74.74	7.185
74.96	4.172
75.18	0.875
75.4	4.907
75.62	4.671
75.84	1.485
76.06	3.333
76.28	3.987
76.5	5.752
76.72	4.439
76.94	28.595
77.16	29.615
77.38	18.352
77.6	10.257
77.82	4.919
78.04	5.118
78.26	3.362
78.48	0.399
78.7	2.862
78.92	5.226
79.14	4.508
79.36	3.507
79.58	4.49
79.8	2.477
80.02	2.294
80.24	4.954
80.46	6.957
80.68	16.283
80.9	13.311
81.12	11.282
81.34	8.085
81.56	0.943
81.78	1.041
82	5.218
82.22	13.214
82.44	0.49
82.66	6.5
82.88	4.879
83.1	4.448
83.32	12.327
83.54	0.774
83.76	6.287
83.98	2.784
84.2	8.036
84.42	10.118
84.64	11.279
84.86	4.005
85.08	0.758
85.3	4.502
85.52	2.494
85.74	3.535
85.96	1.511
86.18	1.691
86.4	16.097
86.62	14.082
86.84	14.823
87.06	3.048
87.28	5.088
87.5	4.114
87.72	1.106
87.94	3.079
88.16	6.981
88.38	1.983
88.6	6.671
88.82	4.513
89.04	12.537
89.26	12.178
89.48	5.327
89.7	0.107
89.92	4.994
