Measurement: Powder, Xray Data XY Processed
Mineral: Corvusite
Rruff sample: R060265
Ideal chemistry: (Na,Ca,K)_1-x_(V^5+^,V^4+^,Fe^2+^)_8_O_20_4H_2_O
Locality: Monument no. 2 mine, Monument Valley, Apache County, Arizona, USA
Source: Michael Scott
Description: Dark brown lathlike bladed crystals in parallel
Diffraction sample description: Powder
x	intensity
5	0
5.22	21.2611
5.44	5.5773
5.66	19.8758
5.88	15.5512
6.1	24.3542
6.32	11.0688
6.54	7.10117
6.76	17.703
6.98	15.4881
7.2	35.0384
7.42	207.101
7.64	337.353
7.86	85.8386
8.08	38.3437
8.3	87.4077
8.52	55.3246
8.74	2.1617
8.96	12.9379
9.18	0.229778
9.4	7.84086
9.62	22.5896
9.84	7.63144
10.06	3.37525
10.28	2.95023
10.5	7.77246
10.72	2.25212
10.94	7.4342
11.16	10.0688
11.38	15.2135
11.6	1.59867
11.82	9.24987
12.04	10.9878
12.26	7.47467
12.48	7.84842
12.7	10.8083
12.92	16.0918
13.14	9.09007
13.36	5.39838
13.58	1.46925
13.8	9.53014
14.02	3.52281
14.24	4.31635
14.46	6.26356
14.68	3.9998
14.9	9.91069
15.12	38.8025
15.34	29.9279
15.56	14.2326
15.78	4.12587
16	6.76197
16.22	1.14851
16.44	15.548
16.66	11.0994
16.88	6.57319
17.1	14.2028
17.32	16.6552
17.54	10.0967
17.76	2.16347
17.98	5.49359
18.2	4.07958
18.42	2.37957
18.64	3.53252
18.86	3.7249
19.08	6.93907
19.3	6.85064
19.52	3.59895
19.74	6.49266
19.96	6.68841
20.18	0.285996
20.4	11.2096
20.62	13.8628
20.84	8.33308
21.06	9.18337
21.28	5.7472
21.5	7.52253
21.72	1.34646
21.94	8.70382
22.16	6.84768
22.38	12.6788
22.6	10.5621
22.82	9.42193
23.04	9.43859
23.26	9.24499
23.48	3.0876
23.7	8.89679
23.92	8.47404
24.14	10.0243
24.36	1.03656
24.58	4.32347
24.8	4.4893
25.02	1.75693
25.24	11.9386
25.46	21.4988
25.68	9.99922
25.9	21.6437
26.12	19.3079
26.34	15.836
26.56	11.9886
26.78	13.484
27	15.6366
27.22	2.9923
27.44	8.24484
27.66	7.47445
27.88	12.6871
28.1	12.9069
28.32	11.9897
28.54	15.5769
28.76	10.3819
28.98	16.7361
29.2	11.5527
29.42	6.88116
29.64	6.8589
29.86	7.96973
30.08	2.99774
30.3	3.20409
30.52	6.45607
30.74	6.91551
30.96	12.5103
31.18	7.59905
31.4	0.693304
31.62	0.965549
31.84	8.3978
32.06	3.44241
32.28	1.50356
32.5	12.2254
32.72	8.14923
32.94	9.9826
33.16	10.5984
33.38	12.8121
33.6	1.17835
33.82	9.62611
34.04	12.4043
34.26	1.12918
34.48	8.73476
34.7	10.6296
34.92	5.90078
35.14	2.95294
35.36	8.2287
35.58	7.70245
35.8	13.2155
36.02	8.75544
36.24	8.21184
36.46	4.90742
36.68	4.34927
36.9	9.74181
37.12	8.25951
37.34	4.59095
37.56	10.8106
37.78	10.6606
38	9.72964
38.22	0.425007
38.44	4.29382
38.66	5.31787
38.88	2.33927
39.1	3.50599
39.32	8.17078
39.54	7.27871
39.76	3.25528
39.98	2.36986
40.2	9.18442
40.42	4.83933
40.64	1.4962
40.86	10.6691
41.08	3.32673
41.3	0.945051
41.52	11.5009
41.74	8.26727
41.96	9.0111
42.18	4.75077
42.4	4.53569
42.62	3.74734
42.84	8.90588
43.06	21.0103
43.28	10.8389
43.5	1.98
43.72	1.69417
43.94	5.51504
44.16	0.605016
44.38	4.71786
44.6	7.82695
44.82	2.75956
45.04	6.7915
45.26	1.65833
45.48	7.86719
45.7	6.96296
45.92	7.11596
46.14	3.23359
46.36	0.363202
46.58	2.86844
46.8	5.0876
47.02	10.5686
47.24	7.21365
47.46	4.15323
47.68	6.41606
47.9	9.30584
48.12	9.35905
48.34	7.6841
48.56	16.6147
48.78	14.4589
49	9.99477
49.22	4.93899
49.44	7.54171
49.66	7.82695
49.88	7.54624
50.1	9.22185
50.32	2.96613
50.54	0.679743
50.76	7.33812
50.98	3.63908
51.2	6.73428
51.42	3.06116
51.64	2.2658
51.86	5.8185
52.08	3.17135
52.3	6.54983
52.52	6.97281
52.74	3.23438
52.96	7.37355
53.18	4.72908
53.4	2.41243
53.62	4.95265
53.84	12.7896
54.06	6.49902
54.28	4.20848
54.5	4.11059
54.72	6.07806
54.94	12.0227
55.16	5.91798
55.38	3.84222
55.6	7.59246
55.82	9.7011
56.04	2.44916
56.26	7.49283
56.48	6.80197
56.7	0.79125
56.92	2.0264
57.14	8.93193
57.36	1.21155
57.58	4.65861
57.8	11.5242
58.02	15.6417
58.24	16.2062
58.46	7.99933
58.68	12.6544
58.9	15.2352
59.12	5.98895
59.34	6.84364
59.56	0.570579
59.78	6.67331
60	2.98419
60.22	11.1455
60.44	11.0383
60.66	12.3724
60.88	1.47517
61.1	1.73268
61.32	5.20956
61.54	7.2382
61.76	2.37373
61.98	7.64145
62.2	9.40534
62.42	9.04261
62.64	0.833405
62.86	12.621
63.08	4.758
63.3	4.13467
63.52	2.96628
63.74	12.7857
63.96	10.827
64.18	10.2027
64.4	7.54703
64.62	13.1258
64.84	10.4816
65.06	5.8107
65.28	12.4671
65.5	2.76793
65.72	2.96828
65.94	4.11497
66.16	8.9676
66.38	7.21065
66.6	10.0032
66.82	7.60095
67.04	6.39344
67.26	8.32579
67.48	6.26663
67.7	4.89714
67.92	2.89753
68.14	7.05059
68.36	3.32077
68.58	5.60634
68.8	3.63108
69.02	9.56801
69.24	6.6117
69.46	8.51682
69.68	4.62439
69.9	11.6888
70.12	3.59016
70.34	6.59598
70.56	11.2973
70.78	8.13292
71	5.08198
71.22	0.911427
71.44	0.974979
71.66	2.24414
71.88	6.64323
72.1	3.70929
72.32	13.8985
72.54	6.03946
72.76	1.12929
72.98	9.26262
73.2	5.31356
73.42	1.23484
73.64	6.38646
73.86	9.4497
74.08	1.84383
74.3	0.979737
74.52	1.8318
74.74	17.5745
74.96	10.5086
75.18	5.44583
75.4	3.36514
75.62	3.4038
75.84	5.60191
76.06	6.45777
76.28	11.308
76.5	2.6551
76.72	1.48639
76.94	7.68045
77.16	10.7716
77.38	1.96894
77.6	8.93739
77.82	5.89255
78.04	0.842835
78.26	3.03232
78.48	3.22653
78.7	1.42736
78.92	1.25161
79.14	10.2973
79.36	7.99461
79.58	6.90094
79.8	1.88534
80.02	4.77107
80.24	11.6465
80.46	6.40665
80.68	11.0768
80.9	3.35567
81.12	8.2411
81.34	8.13939
81.56	13.4188
81.78	4.4684
82	0.21413
82.22	5.6734
82.44	6.75607
82.66	7.78803
82.88	1.81262
83.1	9.07355
83.32	11.7987
83.54	4.62371
83.76	2.65329
83.98	6.80568
84.2	10.9367
84.42	7.75081
84.64	5.85798
84.86	3.9363
85.08	6.94932
85.3	4.20042
85.52	4.23856
85.74	5.23132
85.96	9.303
86.18	8.27465
86.4	4.78135
86.62	7.60382
86.84	3.81667
87.06	1.79349
87.28	8.74361
87.5	4.80107
87.72	0.776639
87.94	3.78047
88.16	1.0333
88.38	1.22881
88.6	9.40708
88.82	6.61428
89.04	3.66525
89.26	8.02179
89.48	11.2496
89.7	2.97461
89.92	11.744
