Measurement: Powder, Xray Data XY Processed
Mineral: Covellite
Rruff sample: R060129
Ideal chemistry: Cu^1+^S
Locality: Butte, Montana, USA
Source: University of Arizona Mineral Museum
Description: Iridescent blue metallic hexagonal plates
Diffraction sample description: Powder
Measured chemistry: Cu_1.00_S_1.00_
Cell parameters: a: 3.7896(4) b: 3.7896(4) c: 16.337(1) alpha: 90 beta: 90 gamma: 120 volume: 203.19(4) crystal system: hexagonal
x	intensity
5	0
5.22	4.871
5.44	7.361
5.66	17.076
5.88	21.403
6.1	6.731
6.32	11.306
6.54	11.393
6.76	14.417
6.98	20.287
7.2	12.452
7.42	22.974
7.64	1.222
7.86	7.26
8.08	0.223
8.3	12.104
8.52	2.758
8.74	21.986
8.96	8.22
9.18	3.951
9.4	13.002
9.62	6.571
9.84	18.901
10.06	19.684
10.28	6.423
10.5	1.362
10.72	2.104
10.94	29.833
11.16	15.666
11.38	2.5
11.6	11.658
11.82	4.689
12.04	5.868
12.26	21.029
12.48	3.419
12.7	8.83
12.92	12.854
13.14	3.933
13.36	2.812
13.58	0.375
13.8	20.487
14.02	4.411
14.24	7.399
14.46	5.364
14.68	2.902
14.9	1.694
15.12	13.442
15.34	3.447
15.56	13.454
15.78	13.585
16	1.841
16.22	12.249
16.44	2.576
16.66	1.602
16.88	10.317
17.1	0.676
17.32	1.36
17.54	14.363
17.76	7.936
17.98	15.851
18.2	5.594
18.42	9.322
18.64	4.205
18.86	17.255
19.08	12.044
19.3	9.306
19.52	12.261
19.74	6.95
19.96	18.233
20.18	26.458
20.4	0.028
20.62	11.169
20.84	15.28
21.06	12.899
21.28	4.071
21.5	6.098
21.72	24.818
21.94	8.131
22.16	14.014
22.38	19.903
22.6	13.771
22.82	8.119
23.04	5.958
23.26	7.167
23.48	15.995
23.7	7.963
23.92	14.126
24.14	3.169
24.36	22.407
24.58	14.418
24.8	6.262
25.02	4.162
25.24	15.94
25.46	14.426
25.68	16.208
25.9	11.161
26.12	2.104
26.34	7.89
26.56	21.759
26.78	0.209
27	1.075
27.22	34.319
27.44	12.779
27.66	25.776
27.88	49.349
28.1	22.045
28.32	0.299
28.54	4.395
28.76	24.18
28.98	14.105
29.2	52.904
29.42	136.684
29.64	48.065
29.86	43.498
30.08	7.829
30.3	9.562
30.52	6.118
30.74	9.466
30.96	0.746
31.18	11.906
31.4	15.382
31.62	34.701
31.84	240.432
32.06	97.785
32.28	24.748
32.5	26.261
32.72	3.056
32.94	379.208
33.16	36.138
33.38	13.225
33.6	0.884
33.82	4.885
34.04	9.748
34.26	9.312
34.48	1.499
34.7	7.737
34.92	21.113
35.14	27.754
35.36	19.678
35.58	26.358
35.8	17.59
36.02	11.38
36.24	40.851
36.46	10.482
36.68	3.134
36.9	4.47
37.12	2.003
37.34	3.466
37.56	10.42
37.78	24.086
38	9.437
38.22	6.255
38.44	9.758
38.66	3.672
38.88	31.171
39.1	21.606
39.32	5.345
39.54	6.04
39.76	6.607
39.98	0.184
40.2	10.45
40.42	9.543
40.64	24.064
40.86	17.825
41.08	24.073
41.3	3.292
41.52	15.324
41.74	12.742
41.96	4.947
42.18	7.279
42.4	17.823
42.62	14.702
42.84	19.357
43.06	9.44
43.28	21.109
43.5	13.823
43.72	13.057
43.94	6.828
44.16	6.771
44.38	33.704
44.6	17.14
44.82	7.545
45.04	16.008
45.26	14.32
45.48	8.333
45.7	8.41
45.92	16.961
46.14	7.544
46.36	14.316
46.58	5.187
46.8	6.839
47.02	17.472
47.24	10.907
47.46	5.998
47.68	52.995
47.9	128.018
48.12	127.609
48.34	51.989
48.56	30.361
48.78	26.232
49	4.204
49.22	4.344
49.44	11.465
49.66	6.884
49.88	21.449
50.1	6.496
50.32	11.387
50.54	8.845
50.76	25.68
50.98	3.438
51.2	22.423
51.42	9.758
51.64	24.016
51.86	5.324
52.08	12.115
52.3	16.157
52.52	18.156
52.74	80.676
52.96	59.627
53.18	18.826
53.4	9.473
53.62	9.271
53.84	1.018
54.06	15.638
54.28	21.349
54.5	13.571
54.72	10.119
54.94	19.346
55.16	19.924
55.38	27.845
55.6	17.728
55.82	9.222
56.04	4.68
56.26	3.575
56.48	10.552
56.7	1.045
56.92	9.127
57.14	13.609
57.36	10.795
57.58	8.398
57.8	4.469
58.02	16.835
58.24	16.575
58.46	1.141
58.68	25.344
58.9	33.068
59.12	21.389
59.34	43.88
59.56	65.08
59.78	31.271
60	18.654
60.22	13.185
60.44	11.118
60.66	3.452
60.88	9.917
61.1	6.946
61.32	9.976
61.54	9.92
61.76	0.355
61.98	18.653
62.2	20.37
62.42	12.567
62.64	2.617
62.86	13.392
63.08	3.424
63.3	14.167
63.52	22.877
63.74	14.758
63.96	19.449
64.18	15.41
64.4	10.589
64.62	2.735
64.84	21.095
65.06	12.674
65.28	24.053
65.5	19.18
65.72	8.101
65.94	17.567
66.16	8.045
66.38	9.859
66.6	11.903
66.82	21.639
67.04	7.895
67.26	9.847
67.48	14.164
67.7	27.281
67.92	0.492
68.14	7.129
68.36	1.565
68.58	11.308
68.8	6.104
69.02	3.245
69.24	3.778
69.46	33.636
69.68	12.098
69.9	20.622
70.12	15.816
70.34	0.628
70.56	8.01
70.78	9.785
71	3.293
71.22	9.169
71.44	27.009
71.66	3.747
71.88	16.306
72.1	11.503
72.32	27.89
72.54	8.888
72.76	26.529
72.98	30.237
73.2	23.51
73.42	20.072
73.64	5.605
73.86	16.338
74.08	13.106
74.3	32.654
74.52	15.802
74.74	11.255
74.96	3.2
75.18	19.262
75.4	10.508
75.62	6.645
75.84	4.928
76.06	9.915
76.28	19.757
76.5	9.482
76.72	15.741
76.94	0.679
77.16	11.45
77.38	18.22
77.6	7.097
77.82	0.789
78.04	15.492
78.26	2.181
78.48	7.009
78.7	30.071
78.92	13.287
79.14	15.911
79.36	13.329
79.58	7.019
79.8	18.626
80.02	10.5
80.24	12.213
80.46	7.341
80.68	11.717
80.9	16.028
81.12	11.15
81.34	19.226
81.56	11.975
81.78	15.613
82	14.764
82.22	2.09
82.44	3.701
82.66	21.711
82.88	8.191
83.1	18.954
83.32	25.731
83.54	3.724
83.76	10.382
83.98	11.795
84.2	11.984
84.42	21.622
84.64	13.932
84.86	1.914
85.08	29.91
85.3	5.049
85.52	14.115
85.74	4.897
85.96	19.158
86.18	0.271
86.4	11.692
86.62	15.733
86.84	17.108
87.06	14.839
87.28	17.006
87.5	8.422
87.72	3.082
87.94	3.464
88.16	18.349
88.38	13.203
88.6	13.935
88.82	5.129
89.04	9.276
89.26	5.747
89.48	11.449
89.7	17.02
89.92	10.951
