Measurement: Powder, Xray Data XY Processed
Mineral: Covellite
Rruff sample: R060306
Ideal chemistry: Cu^1+^S
Locality: 3800' level, Leonard mine, Butte, Silver Bow County, Montana, USA
Source: Michael Scott
Description: Blue iridescent metallic hexagonal plates
Diffraction sample description: Powder
Measured chemistry: Cu_1.00_S_1.00_
Cell parameters: a: 3.7937(7) b: 3.7937(7) c: 16.357(3) alpha: 90. beta: 90. gamma: 120. volume: 203.88(5) crystal system: hexagonal
x	intensity
5	0
5.22	2.19874
5.44	18.8179
5.66	3.82079
5.88	0.241106
6.1	12.9524
6.32	9.29779
6.54	10.4137
6.76	18.0185
6.98	6.08526
7.2	16.0295
7.42	31.3741
7.64	2.7132
7.86	24.6228
8.08	11.8502
8.3	18.3179
8.52	34.7506
8.74	11.3292
8.96	6.24287
9.18	17.8334
9.4	10.2096
9.62	6.15697
9.84	8.20024
10.06	22.9507
10.28	10.5564
10.5	12.3643
10.72	19.2806
10.94	47.739
11.16	5.73521
11.38	18.5332
11.6	5.65937
11.82	4.35746
12.04	6.802
12.26	15.9498
12.48	3.20541
12.7	25.8023
12.92	8.54846
13.14	28.3687
13.36	4.39605
13.58	18.5826
13.8	5.133
14.02	17.7469
14.24	8.74216
14.46	11.6619
14.68	6.08555
14.9	6.24571
15.12	14.9848
15.34	12.2013
15.56	7.41147
15.78	10.5374
16	7.82297
16.22	11.6779
16.44	4.61554
16.66	0.130457
16.88	1.67613
17.1	6.66743
17.32	6.63298
17.54	14.845
17.76	6.57837
17.98	5.10437
18.2	9.30297
18.42	12.4357
18.64	4.32981
18.86	7.85375
19.08	1.00861
19.3	3.94256
19.52	15.2673
19.74	19.3558
19.96	17.5113
20.18	7.32099
20.4	10.7588
20.62	11.4236
20.84	0.561796
21.06	11.3761
21.28	7.25001
21.5	13.0161
21.72	13.7022
21.94	1.51981
22.16	10.3068
22.38	17.0146
22.6	6.37238
22.82	8.00872
23.04	16.198
23.26	10.4665
23.48	19.5037
23.7	8.56173
23.92	6.5641
24.14	19.2379
24.36	12.5802
24.58	17.6968
24.8	5.0607
25.02	6.68397
25.24	7.66206
25.46	3.37112
25.68	18.9385
25.9	2.47166
26.12	6.51914
26.34	15.9194
26.56	4.80218
26.78	6.78355
27	18.0042
27.22	21.545
27.44	8.33076
27.66	24.8555
27.88	36.4243
28.1	14.1246
28.32	13.9491
28.54	4.11777
28.76	11.7567
28.98	15.2837
29.2	29.5244
29.42	140.975
29.64	33.1683
29.86	12.6
30.08	3.02129
30.3	23.9585
30.52	7.46587
30.74	20.9131
30.96	4.25562
31.18	3.70079
31.4	16.6888
31.62	24.5235
31.84	189.161
32.06	75.2727
32.28	18.3733
32.5	9.53421
32.72	3.16704
32.94	373.756
33.16	32.1123
33.38	22.1169
33.6	14.0158
33.82	0.071037
34.04	10.1154
34.26	13.3774
34.48	14.198
34.7	17.6853
34.92	13.5251
35.14	16.6158
35.36	10.6834
35.58	7.13693
35.8	3.86356
36.02	5.59391
36.24	5.21278
36.46	5.53506
36.68	16.3087
36.9	7.34769
37.12	6.90938
37.34	10.391
37.56	0.725914
37.78	4.21193
38	12.0288
38.22	4.47634
38.44	9.53499
38.66	28.7374
38.88	24.6271
39.1	18.3978
39.32	2.37788
39.54	0.780807
39.76	13.1636
39.98	0.76368
40.2	4.59883
40.42	12.1466
40.64	4.70144
40.86	11.8491
41.08	5.28104
41.3	4.23519
41.52	18.1079
41.74	3.66152
41.96	2.19014
42.18	12.049
42.4	15.0097
42.62	9.30458
42.84	8.7445
43.06	11.772
43.28	26.4891
43.5	0.778564
43.72	11.1017
43.94	9.49889
44.16	10.1016
44.38	41.2871
44.6	20.0715
44.82	7.00853
45.04	10.025
45.26	16.7508
45.48	10.2726
45.7	16.042
45.92	20.7624
46.14	17.179
46.36	15.1473
46.58	7.72848
46.8	0.120956
47.02	0.903297
47.24	11.0468
47.46	15.1126
47.68	40.0331
47.9	91.293
48.12	109.791
48.34	46.9097
48.56	17.3402
48.78	1.89687
49	13.5107
49.22	14.1898
49.44	12.3707
49.66	5.90207
49.88	4.86356
50.1	11.3949
50.32	22.553
50.54	8.62434
50.76	25.7952
50.98	10.3406
51.2	14.2837
51.42	21.1082
51.64	20.6103
51.86	2.44702
52.08	15.2217
52.3	9.94237
52.52	21.6673
52.74	65.4267
52.96	52.3777
53.18	21.1648
53.4	28.5277
53.62	13.2611
53.84	3.96669
54.06	10.1913
54.28	9.48117
54.5	4.1118
54.72	9.93294
54.94	13.1923
55.16	1.06133
55.38	14.8032
55.6	4.00557
55.82	16.5551
56.04	17.4059
56.26	14.5087
56.48	19.3532
56.7	4.71964
56.92	11.0579
57.14	8.03937
57.36	28.5043
57.58	7.75094
57.8	8.76595
58.02	18.8942
58.24	7.32633
58.46	8.72288
58.68	18.4913
58.9	34.0831
59.12	12.6112
59.34	45.5949
59.56	56.8026
59.78	9.46738
60	29.4963
60.22	20.4762
60.44	0.150005
60.66	11.2005
60.88	20.3906
61.1	22.1013
61.32	16.9623
61.54	12.5416
61.76	22.4541
61.98	6.73333
62.2	10.6003
62.42	4.13437
62.64	5.74989
62.86	1.72316
63.08	13.2947
63.3	16.0033
63.52	19.7347
63.74	16.7822
63.96	13.2398
64.18	10.626
64.4	2.33657
64.62	18.7724
64.84	10.1334
65.06	3.78958
65.28	12.231
65.5	20.5768
65.72	8.24905
65.94	7.22813
66.16	10.6818
66.38	4.11533
66.6	22.17
66.82	4.21074
67.04	11.4622
67.26	9.36127
67.48	11.6422
67.7	12.7389
67.92	11.0902
68.14	9.22332
68.36	9.94769
68.58	14.8122
68.8	7.33696
69.02	10.8468
69.24	17.5682
69.46	30.3302
69.68	31.3346
69.9	7.88221
70.12	9.74945
70.34	12.0299
70.56	19.0239
70.78	0.626057
71	4.11013
71.22	14.5025
71.44	2.16893
71.66	1.28753
71.88	3.97537
72.1	25.7712
72.32	1.79989
72.54	12.6349
72.76	10.6237
72.98	0.732014
73.2	16.5385
73.42	5.82044
73.64	13.3892
73.86	18.3952
74.08	9.16149
74.3	0.290565
74.52	11.6122
74.74	12.6448
74.96	6.66322
75.18	9.61644
75.4	4.64075
75.62	7.31356
75.84	11.8848
76.06	13.4032
76.28	15.4623
76.5	9.06448
76.72	9.64438
76.94	10.9616
77.16	21.8048
77.38	0.179153
77.6	14.5898
77.82	3.86708
78.04	14.4577
78.26	24.5049
78.48	21.7508
78.7	8.62683
78.92	7.98813
79.14	10.151
79.36	7.0462
79.58	13.5901
79.8	20.654
80.02	25.0827
80.24	21.3003
80.46	13.8682
80.68	16.2523
80.9	2.56766
81.12	14.6872
81.34	16.5272
81.56	3.60211
81.78	17.2466
82	3.13007
82.22	21.095
82.44	15.6227
82.66	10.8274
82.88	14.1641
83.1	14.7268
83.32	19.5288
83.54	14.4574
83.76	9.05302
83.98	0.371803
84.2	15.0941
84.42	11.7358
84.64	13.0208
84.86	20.7762
85.08	1.38419
85.3	9.29152
85.52	11.6044
85.74	8.81255
85.96	22.2259
86.18	13.1723
86.4	2.7877
86.62	14.512
86.84	8.77675
87.06	2.79438
87.28	5.64449
87.5	16.4594
87.72	4.15742
87.94	14.5654
88.16	2.28901
88.38	5.25256
88.6	21.0215
88.82	31.085
89.04	29.9517
89.26	14.9543
89.48	17.4188
89.7	8.15087
89.92	0.923153
