Measurement: Powder, Xray Data XY Processed
Mineral: Cristobalite
Rruff sample: R061064
Ideal chemistry: SiO_2_
Locality: Ellora Caves, India
Source: Harvard Mineralogical Museum
Description: Colorless single crystals, octahedra and groups of octahedra, some have transformed to quartz. Sample used in Downs and Palmer (1994)
Diffraction sample description: Single crystal, powder profile is calculated
Measured chemistry: Si_1.00_O_2_Î‡0.11H_2_O ; trace amounts of Al and Na; H_2_O by difference, verified by Raman spectroscopy
Cell parameters: a: 4.9717(4) b: 4.9717(4) c: 6.9223(3) alpha: 90 beta: 90 gamma: 90 volume: 171.10(1) crystal system: tetragonal
x	intensity
5	0
5.22	0
5.44	0
5.66	0
5.88	0
6.1	0
6.32	0
6.54	0
6.76	0
6.98	0
7.2	0
7.42	0
7.64	0
7.86	0
8.08	0
8.3	0
8.52	0
8.74	0
8.96	0
9.18	0
9.4	0
9.62	0
9.84	0
10.06	0
10.28	0
10.5	0
10.72	0
10.94	0
11.16	0
11.38	0
11.6	0
11.82	0
12.04	0
12.26	0
12.48	0
12.7	0
12.92	0
13.14	0
13.36	0
13.58	0
13.8	0
14.02	0
14.24	0
14.46	0
14.68	0
14.9	0
15.12	0
15.34	0
15.56	0
15.78	0
16	0
16.22	0
16.44	0
16.66	0
16.88	0
17.1	0
17.32	0
17.54	0
17.76	0
17.98	0
18.2	0
18.42	0
18.64	0
18.86	0
19.08	0
19.3	0
19.52	0
19.74	0
19.96	0
20.18	0
20.4	0
20.62	0
20.84	0
21.06	0
21.28	0
21.5	0
21.72	0
21.94	17.087
22.16	0.027
22.38	0
22.6	0
22.82	0
23.04	0
23.26	0
23.48	0
23.7	0
23.92	0
24.14	0
24.36	0
24.58	0
24.8	0
25.02	0
25.24	0.03
25.46	0.006
25.68	0
25.9	0
26.12	0
26.34	0
26.56	0
26.78	0
27	0
27.22	0
27.44	0
27.66	0
27.88	0
28.1	0
28.32	0.001
28.54	3.511
28.76	0
28.98	0
29.2	0
29.42	0
29.64	0
29.86	0
30.08	0
30.3	0
30.52	0
30.74	0
30.96	0
31.18	0
31.4	0.877
31.62	0.292
31.84	0
32.06	0
32.28	0
32.5	0
32.72	0
32.94	0
33.16	0
33.38	0
33.6	0
33.82	0
34.04	0
34.26	0
34.48	0
34.7	0
34.92	0
35.14	0
35.36	0
35.58	0
35.8	0
36.02	0.388
36.24	2.184
36.46	1.589
36.68	0
36.9	0
37.12	0
37.34	0
37.56	0
37.78	0
38	0
38.22	0
38.44	0.05
38.66	0
38.88	0
39.1	0
39.32	0
39.54	0
39.76	0
39.98	0
40.2	0
40.42	0
40.64	0
40.86	0
41.08	0
41.3	0
41.52	0
41.74	0
41.96	0
42.18	0
42.4	0
42.62	0.481
42.84	0.337
43.06	0
43.28	0.052
43.5	0
43.72	0
43.94	0
44.16	0
44.38	0
44.6	0
44.82	1.13
45.04	0.127
45.26	0
45.48	0
45.7	0
45.92	0
46.14	0
46.36	0
46.58	0
46.8	0
47.02	1.24
47.24	0.875
47.46	0
47.68	0
47.9	0
48.12	0
48.34	0
48.56	0.389
48.78	1.848
49	0
49.22	0
49.44	0
49.66	0
49.88	0
50.1	0
50.32	0
50.54	0
50.76	0
50.98	0
51.2	0
51.42	0
51.64	0
51.86	0.001
52.08	0.098
52.3	0
52.52	0
52.74	0.001
52.96	0.164
53.18	0
53.4	0
53.62	0
53.84	0.012
54.06	0.001
54.28	0.326
54.5	0
54.72	0
54.94	0
55.16	0
55.38	0
55.6	0
55.82	0
56.04	0
56.26	0.317
56.48	0.008
56.7	0
56.92	0
57.14	1.908
57.36	0.027
57.58	0.22
57.8	0.001
58.02	0
58.24	0
58.46	0
58.68	0.34
58.9	0.233
59.12	0.01
59.34	0
59.56	0.003
59.78	0
60	0
60.22	0.029
60.44	0.397
60.66	0
60.88	0
61.1	0
61.32	0
61.54	0
61.76	0
61.98	0.489
62.2	1.066
62.42	0
62.64	0
62.86	0
63.08	0
63.3	0
63.52	0
63.74	0
63.96	0
64.18	0
64.4	0
64.62	0
64.84	0
65.06	0.532
65.28	0.756
65.5	0
65.72	0.797
65.94	0.111
66.16	0
66.38	0
66.6	0
66.82	0.601
67.04	0.522
67.26	0
67.48	0
67.7	0
67.92	0
68.14	0
68.36	0
68.58	0.072
68.8	0.167
69.02	0
69.24	0
69.46	0.745
69.68	0.254
69.9	0.043
70.12	0.005
70.34	0
70.56	1.417
70.78	0.624
71	0
71.22	0
71.44	0
71.66	0
71.88	0
72.1	0
72.32	0
72.54	0
72.76	1.085
72.98	0.402
73.2	0
73.42	0.016
73.64	0.009
73.86	0.292
74.08	0.191
74.3	0
74.52	0
74.74	0
74.96	0
75.18	0
75.4	0
75.62	0
75.84	0
76.06	0
76.28	0
76.5	0.003
76.72	0.002
76.94	0
77.16	0
77.38	0.108
77.6	0.076
77.82	0
78.04	0.816
78.26	0.367
78.48	0
78.7	0
78.92	0
79.14	0.092
79.36	0.58
79.58	0.145
79.8	0
80.02	0
80.24	0
80.46	0
80.68	0
80.9	0.084
81.12	0.202
81.34	0.017
81.56	0.006
81.78	0.008
82	0.058
82.22	0.307
82.44	0.164
82.66	0.067
82.88	0.54
83.1	0.143
83.32	0
83.54	0.039
83.76	0.003
83.98	0.006
84.2	0
84.42	0
84.64	0
84.86	0
85.08	0.058
85.3	0.004
85.52	0.001
85.74	0
85.96	0
86.18	0
86.4	0
86.62	0
86.84	0.001
87.06	0
87.28	0
87.5	0
87.72	0.013
87.94	0.194
88.16	0.193
88.38	0
88.6	0
88.82	0
89.04	0.046
89.26	0.965
89.48	0.485
89.7	0.044
89.92	0
