Measurement: Powder, Xray Data XY Processed
Mineral: Crocoite
Rruff sample: R040053
Ideal chemistry: Pb^2+^Cr^6+^O_4_
Locality: Dundas, Tasmania
Source: Bob Downs
Description: Reddish-orange prismatic crystal
Diffraction sample description: Powder
Measured chemistry: (Pb_.995_Mn_.005_)CrO_4_
Cell parameters: a: 7.1217(6) b: 7.4325(3) c: 6.7958(5) alpha: 90. beta: 102.428(5) gamma: 90. volume: 351.29(3) crystal system: monoclinic
x	intensity
5	0
5.22	0.473
5.44	6.972
5.66	5.374
5.88	7.209
6.1	10.339
6.32	20.251
6.54	4.012
6.76	6.578
6.98	4.117
7.2	2.411
7.42	1.207
7.64	5.391
7.86	1.489
8.08	3.331
8.3	0.045
8.52	3.678
8.74	6.406
8.96	5.097
9.18	8.975
9.4	5.997
9.62	3.112
9.84	8.028
10.06	4.157
10.28	6.236
10.5	1.54
10.72	5.692
10.94	9.633
11.16	4.577
11.38	2.808
11.6	5.022
11.82	4.408
12.04	3.336
12.26	2.736
12.48	2.087
12.7	6.657
12.92	3.75
13.14	0.001
13.36	4.16
13.58	7.238
13.8	3.199
14.02	4.467
14.24	6.14
14.46	9.119
14.68	6.769
14.9	2.439
15.12	5.877
15.34	1.373
15.56	7.391
15.78	1.143
16	7.932
16.22	7.758
16.44	55.16
16.66	0.189
16.88	3.39
17.1	13.161
17.32	10.159
17.54	56.342
17.76	11.279
17.98	100.28
18.2	2.453
18.42	7.602
18.64	1.193
18.86	7.124
19.08	0.179
19.3	3.222
19.52	0.75
19.74	1.163
19.96	8.771
20.18	14.041
20.4	76.884
20.62	14.824
20.84	7.735
21.06	11.191
21.28	7.433
21.5	12.624
21.72	3.067
21.94	8.267
22.16	12.354
22.38	7.607
22.6	0.3
22.82	10.229
23.04	7.313
23.26	2.108
23.48	0.61
23.7	58.108
23.92	15.234
24.14	8.683
24.36	5.247
24.58	19.846
24.8	2.22
25.02	9.434
25.24	14.96
25.46	20.503
25.68	323.303
25.9	12.839
26.12	2.09
26.34	6.133
26.56	8.636
26.78	3.45
27	31.845
27.22	588.529
27.44	56.671
27.66	20.17
27.88	3.65
28.1	3.594
28.32	42.672
28.54	15.859
28.76	4.213
28.98	24.795
29.2	2.425
29.42	36.465
29.64	52.065
29.86	65.375
30.08	8.353
30.3	10.903
30.52	10.399
30.74	9.861
30.96	2.422
31.18	5.881
31.4	4.216
31.62	9.087
31.84	5.897
32.06	5.495
32.28	12.138
32.5	1.563
32.72	8.492
32.94	11.689
33.16	28.533
33.38	7.224
33.6	4.222
33.82	7.321
34.04	8.043
34.26	2.738
34.48	12.663
34.7	13.391
34.92	11.945
35.14	18.901
35.36	222.787
35.58	4.765
35.8	14.26
36.02	9.281
36.24	5.567
36.46	9.156
36.68	12.642
36.9	7.965
37.12	5.407
37.34	5.505
37.56	0.205
37.78	6.087
38	7.34
38.22	9.965
38.44	4.001
38.66	14.457
38.88	60.752
39.1	6.174
39.32	6.442
39.54	2.038
39.76	13.694
39.98	90.558
40.2	82.731
40.42	17.584
40.64	8.503
40.86	17.44
41.08	8.319
41.3	2.315
41.52	7.693
41.74	4.905
41.96	12.302
42.18	6.417
42.4	6.362
42.62	8.246
42.84	10.721
43.06	16.43
43.28	125.065
43.5	25.907
43.72	2.492
43.94	5.907
44.16	18.289
44.38	19.796
44.6	3.38
44.82	7.412
45.04	17.01
45.26	24.941
45.48	20.151
45.7	26.447
45.92	80.744
46.14	129.456
46.36	22.995
46.58	5.425
46.8	5.616
47.02	1.193
47.24	3.419
47.46	5.626
47.68	8.429
47.9	16.973
48.12	0.546
48.34	2.896
48.56	2.339
48.78	16.546
49	26.218
49.22	27.912
49.44	68.509
49.66	5.223
49.88	12.11
50.1	6.415
50.32	10.524
50.54	13.598
50.76	3.308
50.98	32.988
51.2	6.779
51.42	3.699
51.64	5.641
51.86	2.611
52.08	2.069
52.3	10.448
52.52	3.178
52.74	27.458
52.96	22.703
53.18	9.236
53.4	13.946
53.62	27.877
53.84	15.421
54.06	86.554
54.28	52.45
54.5	43.027
54.72	4.704
54.94	0.682
55.16	1.563
55.38	17.743
55.6	11.07
55.82	0.937
56.04	30.563
56.26	37.717
56.48	7.789
56.7	3.125
56.92	6.706
57.14	17.414
57.36	7.242
57.58	21.666
57.8	4.764
58.02	13.714
58.24	1.052
58.46	2.123
58.68	4.164
58.9	5.178
59.12	3.146
59.34	9.635
59.56	14.368
59.78	10.406
60	6.51
60.22	0.698
60.44	11.296
60.66	1.561
60.88	8.905
61.1	10.898
61.32	5.176
61.54	11.366
61.76	17.709
61.98	6.437
62.2	1.371
62.42	1.213
62.64	4.217
62.86	10.044
63.08	10.542
63.3	12.761
63.52	0.561
63.74	6.045
63.96	4.4
64.18	15.493
64.4	7.805
64.62	3.185
64.84	2.919
65.06	26.54
65.28	9.864
65.5	19.596
65.72	43.399
65.94	23.304
66.16	4.411
66.38	5.399
66.6	22.504
66.82	26.869
67.04	17.213
67.26	13.836
67.48	1.49
67.7	6.067
67.92	8.409
68.14	9.771
68.36	9.106
68.58	21.165
68.8	13.665
69.02	13.627
69.24	117.673
69.46	27.881
69.68	3.218
69.9	0.511
70.12	8.759
70.34	4.583
70.56	11.685
70.78	10.833
71	0.468
71.22	2.272
71.44	11.287
71.66	16.031
71.88	8.9
72.1	16.702
72.32	25.329
72.54	38.889
72.76	17.162
72.98	8.181
73.2	8.648
73.42	21.404
73.64	8.144
73.86	4.511
74.08	9.914
74.3	5.28
74.52	3.442
74.74	5.496
74.96	1.346
75.18	5.243
75.4	3.409
75.62	32.114
75.84	24.573
76.06	21.825
76.28	5.477
76.5	2.166
76.72	4.776
76.94	2.468
77.16	7.753
77.38	12.619
77.6	20.571
77.82	9.029
78.04	5.945
78.26	9.099
78.48	7.348
78.7	6.148
78.92	23.784
79.14	6.775
79.36	9.968
79.58	0.576
79.8	0.03
80.02	2.471
80.24	0.673
80.46	1.978
80.68	2.074
80.9	10.271
81.12	9.394
81.34	2.812
81.56	10.007
81.78	14.565
82	22.206
82.22	2.953
82.44	7.922
82.66	19.224
82.88	16.569
83.1	11.802
83.32	1.442
83.54	6.612
83.76	4.767
83.98	3.834
84.2	4.136
84.42	12.297
84.64	10.67
84.86	14.412
85.08	12.005
85.3	8.317
85.52	15.23
85.74	7.98
85.96	26.869
86.18	14.7
86.4	7.279
86.62	7.213
86.84	4.927
87.06	3.489
87.28	6.443
87.5	16.403
87.72	4.369
87.94	4.646
88.16	11.35
88.38	10.57
88.6	8.868
88.82	15.318
89.04	11.855
89.26	9.555
89.48	9.804
89.7	9.842
89.92	0.745
