Measurement: Powder, Xray Data XY Processed
Mineral: Cryolite
Rruff sample: R050287
Ideal chemistry: Na_3_AlF_6_
Locality: Ivigtut, Greenland
Source: Marcus Origlieri
Description: Colorless fragment
Diffraction sample description: Powder
Measured chemistry: Na_3.00_Al_1.00_F_6.00_
Cell parameters: a: 5.4063(4) b: 5.5933(3) c: 7.7667(7) alpha: 90 beta: 90.201(9) gamma: 90 volume: 234.86(2) crystal system: monoclinic
x	intensity
5	0
5.22	10.612
5.44	6.99127
5.66	3.53332
5.88	4.62457
6.1	9.09517
6.32	6.20305
6.54	2.57154
6.76	9.08703
6.98	8.30255
7.2	17.7521
7.42	6.08251
7.64	8.32974
7.86	3.25675
8.08	7.64524
8.3	8.1685
8.52	6.27215
8.74	5.888
8.96	12.3155
9.18	2.59463
9.4	5.94694
9.62	7.31391
9.84	6.54583
10.06	11.8469
10.28	11.3825
10.5	9.70563
10.72	3.59581
10.94	0.909835
11.16	2.79356
11.38	1.84965
11.6	1.89461
11.82	9.27145
12.04	9.24041
12.26	7.32047
12.48	6.44606
12.7	6.43341
12.92	8.36146
13.14	9.57497
13.36	1.55259
13.58	7.6349
13.8	11.7791
14.02	1.68632
14.24	1.61167
14.46	0.139007
14.68	1.77611
14.9	3.82729
15.12	1.92791
15.34	4.18108
15.56	1.21067
15.78	1.42955
16	2.71195
16.22	2.7706
16.44	2.13212
16.66	5.95567
16.88	2.07733
17.1	4.23041
17.32	0.382268
17.54	7.8137
17.76	0.847648
17.98	11.7307
18.2	7.58672
18.42	4.24092
18.64	1.9766
18.86	7.73362
19.08	3.45574
19.3	3.22712
19.52	61.7617
19.74	24.4556
19.96	37.0223
20.18	39.1822
20.4	2.34048
20.62	2.64524
20.84	3.05844
21.06	18.154
21.28	4.27317
21.5	6.3804
21.72	8.44594
21.94	0.474804
22.16	7.25928
22.38	8.07752
22.6	11.0619
22.82	58.0279
23.04	59.8524
23.26	6.50826
23.48	4.63962
23.7	8.04312
23.92	7.0761
24.14	2.06575
24.36	0.097816
24.58	1.16043
24.8	3.83423
25.02	0.218126
25.24	2.76973
25.46	3.96862
25.68	64.0223
25.9	8.88262
26.12	4.62802
26.34	0.680421
26.56	3.92723
26.78	3.95929
27	10.9875
27.22	7.34963
27.44	7.34135
27.66	2.50111
27.88	11.3596
28.1	3.37005
28.32	7.40663
28.54	6.41415
28.76	4.42204
28.98	3.30426
29.2	1.45025
29.42	9.49863
29.64	10.7662
29.86	12.5941
30.08	6.8568
30.3	3.88959
30.52	0.365374
30.74	2.74402
30.96	6.84109
31.18	2.00114
31.4	4.04575
31.62	12.994
31.84	17.6636
32.06	107.601
32.28	18.68
32.5	94.3465
32.72	262.865
32.94	20.3518
33.16	748.923
33.38	14.0968
33.6	6.82202
33.82	4.45006
34.04	5.7946
34.26	3.05732
34.48	3.99439
34.7	8.64188
34.92	12.3682
35.14	8.30671
35.36	4.37105
35.58	10.5304
35.8	2.94586
36.02	3.38627
36.24	24.0826
36.46	1.36577
36.68	4.7307
36.9	74.657
37.12	34.8735
37.34	7.35024
37.56	6.81594
37.78	10.7974
38	67.5661
38.22	31.3337
38.44	41.0806
38.66	122.689
38.88	93.6721
39.1	8.73025
39.32	11.4718
39.54	5.75541
39.76	79.1041
39.98	16.7951
40.2	1.15741
40.42	1.88993
40.64	37.2477
40.86	25.6646
41.08	4.09146
41.3	6.41116
41.52	2.09676
41.74	14.4382
41.96	113.528
42.18	19.5029
42.4	1.17671
42.62	3.35258
42.84	3.95755
43.06	23.0099
43.28	86.3554
43.5	12.4942
43.72	12.7327
43.94	22.3414
44.16	7.90295
44.38	10.407
44.6	21.8007
44.82	10.9153
45.04	3.34707
45.26	12.479
45.48	5.1259
45.7	7.40442
45.92	1.85628
46.14	8.20876
46.36	12.1335
46.58	63.4486
46.8	353.778
47.02	51.248
47.24	11.0227
47.46	5.70479
47.68	2.0019
47.9	37.3715
48.12	12.0601
48.34	35.9166
48.56	13.6152
48.78	7.90632
49	0.59552
49.22	2.91788
49.44	4.83078
49.66	4.4894
49.88	3.67957
50.1	6.34717
50.32	0.926098
50.54	4.17251
50.76	12.1663
50.98	24.2753
51.2	8.34902
51.42	12.4026
51.64	11.7442
51.86	80.8765
52.08	18.1562
52.3	5.24261
52.52	20.5469
52.74	77.8728
52.96	3.03203
53.18	22.3513
53.4	69.2511
53.62	12.0724
53.84	5.02731
54.06	2.84122
54.28	3.65254
54.5	5.19587
54.72	21.8555
54.94	28.4723
55.16	6.92967
55.38	3.80376
55.6	8.47876
55.82	5.61797
56.04	2.23681
56.26	3.5468
56.48	2.7664
56.7	4.75737
56.92	4.80788
57.14	4.61847
57.36	46.3927
57.58	32.1909
57.8	222.979
58.02	38.5332
58.24	2.16538
58.46	33.1452
58.68	93.6713
58.9	174.679
59.12	130.192
59.34	2.29141
59.56	4.05497
59.78	5.95268
60	0.164461
60.22	4.42079
60.44	0.836736
60.66	2.03981
60.88	3.08299
61.1	14.1897
61.32	10.8051
61.54	19.0528
61.76	25.0119
61.98	10.4704
62.2	3.95885
62.42	15.98
62.64	16.2617
62.86	1.4403
63.08	6.69932
63.3	1.0774
63.52	8.35001
63.74	8.69237
63.96	14.8402
64.18	7.82711
64.4	0.330808
64.62	2.40423
64.84	1.65552
65.06	6.01949
65.28	18.4788
65.5	11.612
65.72	2.63597
65.94	3.57564
66.16	2.44139
66.38	0.325055
66.6	1.38928
66.82	18.2543
67.04	4.01803
67.26	7.68732
67.48	5.16745
67.7	4.65538
67.92	4.90373
68.14	24.8493
68.36	81.826
68.58	28.8078
68.8	8.93192
69.02	4.15525
69.24	5.35919
69.46	8.94229
69.68	9.12983
69.9	2.58263
70.12	1.73883
70.34	4.33098
70.56	4.10245
70.78	1.01573
71	5.82449
71.22	1.44481
71.44	7.16741
71.66	10.9432
71.88	6.76394
72.1	10.6875
72.32	24.6308
72.54	25.0521
72.76	5.40941
72.98	10.7197
73.2	1.06614
73.42	4.59392
73.64	7.17755
73.86	7.73339
74.08	5.97358
74.3	12.2935
74.52	9.70009
74.74	2.55601
74.96	7.12178
75.18	4.96249
75.4	3.84245
75.62	3.65398
75.84	3.26373
76.06	1.37014
76.28	8.0593
76.5	10.6235
76.72	10.1756
76.94	5.71862
77.16	0.275872
77.38	2.57779
77.6	42.448
77.82	45.3858
78.04	8.39574
78.26	1.15885
78.48	7.68549
78.7	12.7396
78.92	13.9885
79.14	8.31488
79.36	2.64239
79.58	11.8721
79.8	9.96059
80.02	0.675446
80.24	6.45116
80.46	0.600719
80.68	0.687356
80.9	4.17607
81.12	6.17454
81.34	10.8934
81.56	7.65723
81.78	3.3203
82	9.00435
82.22	8.89129
82.44	7.5823
82.66	10.6667
82.88	14.8516
83.1	1.10135
83.32	21.0613
83.54	20.1534
83.76	10.4729
83.98	6.96486
84.2	2.33746
84.42	1.57923
84.64	6.90653
84.86	0.243758
85.08	10.275
85.3	5.32085
85.52	4.39761
85.74	0.433474
85.96	6.44801
86.18	2.37037
86.4	10.2922
86.62	4.33972
86.84	3.22376
87.06	2.115
87.28	2.96796
87.5	4.86977
87.72	3.84489
87.94	5.5469
88.16	8.65619
88.38	1.77789
88.6	8.86228
88.82	1.79036
89.04	6.75779
89.26	3.96794
89.48	11.1511
89.7	5.2539
89.92	1.76214
