Measurement: Powder, Xray Data XY Processed
Mineral: Cuprite
Rruff sample: R050374
Ideal chemistry: Cu^1+^_2_O
Locality: unknown
Source: Eugene Schlepp
Description: Aggregate of deep red cubes
Diffraction sample description: Powder
Measured chemistry: Cu_2.00_O
Cell parameters: a: 4.2708(2) b: 4.2708(2) c: 4.2708(2) alpha: 90. beta: 90. gamma: 90. volume: 77.901(9) crystal system: cubic
x	intensity
5	0
5.22	8.35954
5.44	6.51051
5.66	22.0537
5.88	8.3269
6.1	7.38921
6.32	13.6809
6.54	7.74414
6.76	9.65558
6.98	8.66302
7.2	20.9837
7.42	11.8055
7.64	27.7025
7.86	29.3718
8.08	24.837
8.3	18.6445
8.52	39.0727
8.74	26.2714
8.96	2.56777
9.18	18.5145
9.4	1.07539
9.62	20.9493
9.84	4.28339
10.06	9.68469
10.28	7.91877
10.5	8.64188
10.72	31.6551
10.94	13.4651
11.16	2.99761
11.38	27.4231
11.6	12.2919
11.82	10.5685
12.04	3.78498
12.26	19.0474
12.48	12.2936
12.7	6.84627
12.92	11.5606
13.14	11.4711
13.36	20.1884
13.58	9.46538
13.8	16.4129
14.02	13.9347
14.24	7.56867
14.46	14.7543
14.68	23.0306
14.9	9.18362
15.12	12.7314
15.34	8.2606
15.56	31.6427
15.78	9.77507
16	0.574852
16.22	21.8129
16.44	12.5754
16.66	9.30703
16.88	18.5714
17.1	17.7677
17.32	20.7429
17.54	17.298
17.76	18.8615
17.98	12.2343
18.2	31.3556
18.42	23.3144
18.64	7.07382
18.86	19.6406
19.08	11.6473
19.3	7.93706
19.52	6.80905
19.74	5.64729
19.96	8.39217
20.18	23.3534
20.4	1.16224
20.62	7.38763
20.84	28.9082
21.06	11.7903
21.28	5.93433
21.5	10.6221
21.72	12.948
21.94	17.6098
22.16	20.7132
22.38	5.59757
22.6	12.7942
22.82	18.8263
23.04	14.2705
23.26	34.8118
23.48	19.3388
23.7	6.86385
23.92	25.3764
24.14	16.6781
24.36	0.464775
24.58	33.9001
24.8	5.09567
25.02	10.213
25.24	25.745
25.46	13.6686
25.68	37.764
25.9	7.65494
26.12	20.2195
26.34	23.9754
26.56	17.964
26.78	15.8797
27	17.0406
27.22	14.9877
27.44	32.224
27.66	6.6029
27.88	23.916
28.1	12.9214
28.32	0.197571
28.54	8.79884
28.76	7.76488
28.98	2.70712
29.2	28.8764
29.42	33.9892
29.64	44.8257
29.86	27.568
30.08	23.2584
30.3	12.1513
30.52	15.7964
30.74	13.2724
30.96	5.90907
31.18	23.6346
31.4	19.6575
31.62	16.7706
31.84	22.9013
32.06	30.6445
32.28	23.0071
32.5	18.4489
32.72	35.2107
32.94	24.6986
33.16	8.53326
33.38	13.6955
33.6	4.64851
33.82	20.9738
34.04	17.0848
34.26	10.1754
34.48	7.31339
34.7	16.2339
34.92	18.1326
35.14	2.06789
35.36	20.9916
35.58	37.3338
35.8	55.781
36.02	118.962
36.24	333.928
36.46	818.368
36.68	538.403
36.9	193.896
37.12	88.8771
37.34	47.0163
37.56	36.307
37.78	12.2424
38	18.9399
38.22	29.6355
38.44	11.0353
38.66	29.9501
38.88	0.959312
39.1	28.0313
39.32	11.8719
39.54	16.0711
39.76	7.74233
39.98	13.4142
40.2	0.645988
40.42	14.3302
40.64	15.4455
40.86	13.0756
41.08	4.52238
41.3	5.25443
41.52	7.27342
41.74	1.91005
41.96	52.099
42.18	107.291
42.4	227.627
42.62	122.509
42.84	62.6214
43.06	31.0082
43.28	42.3728
43.5	26.7215
43.72	21.0674
43.94	9.93591
44.16	8.98486
44.38	14.9658
44.6	37.0531
44.82	9.80372
45.04	9.35346
45.26	23.639
45.48	2.24348
45.7	25.6406
45.92	9.21833
46.14	22.7436
46.36	5.2359
46.58	1.17458
46.8	11.1931
47.02	11.1429
47.24	32.6004
47.46	22.3242
47.68	12.4093
47.9	14.7197
48.12	19.4363
48.34	19.9364
48.56	12.434
48.78	13.7121
49	4.45354
49.22	9.18199
49.44	8.67397
49.66	1.70571
49.88	9.38573
50.1	9.02084
50.32	26.8413
50.54	31.9046
50.76	23.9373
50.98	5.09003
51.2	23.7279
51.42	2.91124
51.64	9.3317
51.86	35.7983
52.08	14.9574
52.3	13.145
52.52	24.6913
52.74	13.0082
52.96	10.2844
53.18	15.2028
53.4	3.39924
53.62	21.2693
53.84	14.6109
54.06	15.157
54.28	8.68039
54.5	24.6029
54.72	16.151
54.94	2.48598
55.16	23.5051
55.38	2.47345
55.6	0.843216
55.82	5.91042
56.04	26.1335
56.26	25.1033
56.48	1.75374
56.7	24.5477
56.92	19.8055
57.14	15.2502
57.36	29.8239
57.58	21.1127
57.8	21.8898
58.02	17.6549
58.24	30.8266
58.46	25.8445
58.68	16.6158
58.9	14.2044
59.12	3.62906
59.34	15.1697
59.56	27.9369
59.78	13.8429
60	22.8817
60.22	30.2944
60.44	3.48309
60.66	5.71795
60.88	27.7391
61.1	59.4725
61.32	121.989
61.54	144.185
61.76	53.7242
61.98	51.525
62.2	35.9729
62.42	14.2715
62.64	2.10513
62.86	36.437
63.08	0.484947
63.3	7.83422
63.52	14.4531
63.74	6.73586
63.96	34.2794
64.18	7.49845
64.4	4.71213
64.62	5.49026
64.84	19.8484
65.06	8.69072
65.28	2.28589
65.5	22.6395
65.72	6.92925
65.94	10.2255
66.16	15.7711
66.38	13.0782
66.6	11.7875
66.82	2.47225
67.04	22.6089
67.26	1.41182
67.48	23.416
67.7	10.6299
67.92	13.7555
68.14	12.6384
68.36	6.40659
68.58	2.82318
68.8	6.64504
69.02	29.9868
69.24	16.1618
69.46	20.1191
69.68	13.9106
69.9	1.04428
70.12	26.054
70.34	0.16877
70.56	7.31166
70.78	9.51288
71	16.5076
71.22	4.5977
71.44	1.82683
71.66	19.6074
71.88	21.6651
72.1	45.1748
72.32	30.0256
72.54	19.2946
72.76	11.4726
72.98	38.3459
73.2	60.7006
73.42	78.5848
73.64	64.658
73.86	57.33
74.08	34.0965
74.3	33.2211
74.52	38.4217
74.74	30.3262
74.96	13.8579
75.18	21.1101
75.4	3.1586
75.62	6.08221
75.84	5.02205
76.06	23.9333
76.28	13.3664
76.5	24.8764
76.72	28.4068
76.94	26.0894
77.16	7.23119
77.38	27.239
77.6	17.9012
77.82	25.2642
78.04	16.5814
78.26	15.642
78.48	25.4003
78.7	16.0284
78.92	11.6896
79.14	3.46827
79.36	4.13304
79.58	5.15699
79.8	9.04414
80.02	32.8298
80.24	32.2475
80.46	16.6716
80.68	25.1882
80.9	12.6331
81.12	9.03161
81.34	23.4058
81.56	17.1933
81.78	21.9205
82	15.2348
82.22	4.82159
82.44	7.76741
82.66	8.90678
82.88	15.9799
83.1	21.9325
83.32	28.1356
83.54	24.5565
83.76	29.0684
83.98	10.5896
84.2	16.4583
84.42	12.2842
84.64	27.3712
84.86	16.8959
85.08	14.7814
85.3	5.62881
85.52	14.4906
85.74	6.62209
85.96	15.1603
86.18	20.0547
86.4	18.8252
86.62	15.8357
86.84	18.9167
87.06	11.6525
87.28	10.0251
87.5	12.6642
87.72	15.7546
87.94	30.1674
88.16	16.5425
88.38	12.6856
88.6	13.8531
88.82	19.8621
89.04	20.5721
89.26	19.9754
89.48	7.1566
89.7	11.4998
89.92	21.9833
