Measurement: Powder, Xray Data XY Processed
Mineral: Cyanotrichite
Rruff sample: R070500
Ideal chemistry: Cu^2+^_4_Al_2_S^6+^O_4_(OH)_12_2H_2_O
Locality: Vieja mine, Portrerillos, Chanaral Province, Atacama Region, Chile
Source: James Shigley
Description: Radial aggregates of sky-blue fibers associated with green brochantite
Diffraction sample description: Powder, using Mo radiation
x	intensity
4.46	0
4.58	5.36106
4.7	13.6188
4.82	1.14422
4.94	12.1849
5.06	4.54826
5.18	1.06503
5.3	14.7189
5.42	15.53
5.54	16.624
5.66	2.04205
5.78	2.71667
5.9	8.81832
6.02	14.0963
6.14	25.0737
6.26	27.7246
6.38	31.2336
6.5	31.5431
6.62	26.0191
6.74	19.0668
6.86	32.5586
6.98	26.9766
7.1	20.5616
7.22	45.1587
7.34	58.2568
7.46	39.3635
7.58	85.6361
7.7	77.8683
7.82	93.8486
7.94	122.854
8.06	58.9502
8.18	38.5491
8.3	27.1836
8.42	26.0464
8.54	30.2061
8.66	26.7598
8.78	26.4011
8.9	29.6673
9.02	26.5576
9.14	24.7296
9.26	19.5229
9.38	13.9255
9.5	22.5892
9.62	17.3367
9.74	9.57514
9.86	19.3242
9.98	16.3409
10.1	20.2471
10.22	18.4463
10.34	27.2943
10.46	22.5306
10.58	26.8031
10.7	55.6404
10.82	33.5318
10.94	12.282
11.06	10.1835
11.18	15.8102
11.3	10.7857
11.42	16.9455
11.54	8.67938
11.66	13.197
11.78	8.7233
11.9	10.5205
12.02	5.6487
12.14	0.703812
12.26	2.90845
12.38	2.20563
12.5	2.9472
12.62	2.71592
12.74	0.720352
12.86	0.295044
12.98	13.5513
13.1	21.9834
13.22	21.7842
13.34	10.2665
13.46	8.91396
13.58	14.4403
13.7	10.3251
13.82	1.77239
13.94	3.0861
14.06	3.14154
14.18	5.68281
14.3	6.21784
14.42	7.36969
14.54	4.77148
14.66	7.79287
14.78	8.50937
14.9	26.2419
15.02	34.5051
15.14	25.6903
15.26	11.129
15.38	1.82798
15.5	1.01358
15.62	0.674828
15.74	0.089584
15.86	3.75685
15.98	1.50978
16.1	2.0048
16.22	4.48098
16.34	6.05091
16.46	10.8916
16.58	9.54043
16.7	8.22126
16.82	25.7764
16.94	64.3138
17.06	139.018
17.18	183.727
17.3	145.758
17.42	85.8538
17.54	53.7365
17.66	30.9207
17.78	12.8132
17.9	9.78059
18.02	11.571
18.14	5.56461
18.26	6.26918
18.38	6.1209
18.5	6.56829
18.62	7.97638
18.74	9.27446
18.86	9.87795
18.98	6.67788
19.1	7.55196
19.22	8.90531
19.34	3.29364
19.46	0.60218
19.58	0.081688
19.7	0.763172
19.82	1.35725
19.94	0.553616
20.06	1.72745
20.18	1.24599
20.3	3.03255
20.42	0.699665
20.54	7.17477
20.66	10.1703
20.78	8.77029
20.9	3.86991
21.02	3.00728
21.14	0.674557
21.26	6.0195
21.38	6.60041
21.5	16.6586
21.62	18.2132
21.74	29.2031
21.86	32.9696
21.98	60.7727
22.1	72.3814
22.22	56.5599
22.34	26.3057
22.46	14.3766
22.58	8.48203
22.7	5.40089
22.82	5.53588
22.94	3.33578
23.06	5.25174
23.18	5.92778
23.3	9.57373
23.42	9.25714
23.54	3.42783
23.66	3.19027
23.78	2.0313
23.9	4.04967
24.02	4.86749
24.14	5.61606
24.26	4.71971
24.38	3.36482
24.5	2.76497
24.62	1.17006
24.74	0.255325
24.86	1.77664
24.98	0.772408
25.1	1.32575
25.22	2.09617
25.34	1.80395
25.46	1.76392
25.58	0.912474
25.7	0.375282
25.82	1.3795
25.94	0.252007
26.06	1.96971
26.18	1.65638
26.3	0.591078
26.42	0.815016
26.54	2.04704
26.66	3.47772
26.78	3.9111
26.9	4.66348
27.02	4.46322
27.14	2.25091
27.26	2.93623
27.38	3.48718
27.5	2.746
27.62	4.25912
27.74	7.76021
27.86	3.93718
27.98	6.52031
28.1	13.6389
28.22	28.1972
28.34	33.8971
28.46	27.0687
28.58	14.6925
28.7	10.2429
28.82	5.6351
28.94	2.89773
29.06	2.58209
29.18	11.1842
29.3	16.163
29.42	21.8857
29.54	15.6268
29.66	9.02573
29.78	0.742046
29.9	0.858137
30.02	3.10854
30.14	6.60142
30.26	4.87437
30.38	4.70859
30.5	0.864738
30.62	0.210602
30.74	2.56356
30.86	1.88921
30.98	0.983248
31.1	4.96331
31.22	7.83334
31.34	10.9255
31.46	10.7459
31.58	9.62231
31.7	4.83301
31.82	4.95363
31.94	1.24037
32.06	1.93677
32.18	4.83652
32.3	3.72014
32.42	0.962921
32.54	0.514114
32.66	0.359407
32.78	1.91218
32.9	0.829477
33.02	0.628563
33.14	1.03354
33.26	0.500061
33.38	0.973026
33.5	2.68288
33.62	2.31557
33.74	2.98218
33.86	1.58687
33.98	1.23824
34.1	0.667263
34.22	1.10962
34.34	1.02393
34.46	5.41023
34.58	7.58344
34.7	7.44369
34.82	8.83532
34.94	7.21054
35.06	4.34378
35.18	2.33783
35.3	0.349598
35.42	2.16151
35.54	0.110941
35.66	1.41298
35.78	2.48103
35.9	2.9006
36.02	1.73428
36.14	1.50434
36.26	0.767664
36.38	0.562969
36.5	0.532761
36.62	0.882547
36.74	0.82938
36.86	0.73674
36.98	2.45024
37.1	0.499769
37.22	1.72093
37.34	0.334026
37.46	1.47708
37.58	0.69644
37.7	1.17438
37.82	1.38094
37.94	1.88205
38.06	1.27791
38.18	2.02347
38.3	1.23375
38.42	4.13763
38.54	0.014965
38.66	1.36436
38.78	7.16198
38.9	5.4574
39.02	7.08673
39.14	9.73865
39.26	7.65008
39.38	6.85203
39.5	5.99073
39.62	4.82867
39.74	1.29158
39.86	3.40995
39.98	0.367186
40.1	1.65647
40.22	1.2045
40.34	0.73292
40.46	0.507759
40.58	1.70639
40.7	0.743435
40.82	1.02289
40.94	2.47702
41.06	1.34418
41.18	0.902386
41.3	1.19485
41.42	0.382027
41.54	0.204796
41.66	0.567976
41.78	1.01154
41.9	2.05002
42.02	0.910686
42.14	0.984161
42.26	2.2852
42.38	2.73133
42.5	0.52788
42.62	3.05548
42.74	4.17186
42.86	0.369308
42.98	1.94066
43.1	2.55955
43.22	1.86348
43.34	2.01272
43.46	3.12284
43.58	0.275585
43.7	3.4356
43.82	2.63457
43.94	3.83358
44.06	5.47937
44.18	6.00975
44.3	5.93808
44.42	5.38438
44.54	4.09969
44.66	2.14091
44.78	3.3139
44.9	0.121351
45.02	2.6537
45.14	2.13762
45.26	1.50622
45.38	2.32936
45.5	1.68536
45.62	3.57261
45.74	3.60035
45.86	3.08242
45.98	1.96198
46.1	3.66896
46.22	7.78361
46.34	9.50806
46.46	11.2424
46.58	14.263
46.7	12.5786
46.82	11.9081
46.94	7.28184
47.06	5.48397
47.18	0.060297
47.3	2.46013
47.42	3.29302
47.54	4.41603
47.66	3.98074
47.78	2.30814
47.9	2.04455
48.02	5.09576
48.14	2.26666
48.26	0.012243
