Measurement: Powder, Xray Data XY Processed
Mineral: Cylindrite
Rruff sample: R050329
Ideal chemistry: FePb_3_Sn_4_Sb_2_S_14_
Locality: Poop√≥ Province, Oruro Department, Bolivia
Source: Lloyd Twaites
Description: Aggregate of silvery white metallic cylindrical tubes
Diffraction sample description: Powder
Measured chemistry: Pb_2.76_Sn_4.60_Fe_0.84_Sb_1.80_S_14_
x	intensity
5	0
5.22	7.017
5.44	10.612
5.66	14.447
5.88	5.788
6.1	9.74
6.32	7.983
6.54	7.846
6.76	12.034
6.98	3.998
7.2	3.029
7.42	0.796
7.64	11.293
7.86	3.353
8.08	6.739
8.3	8.873
8.52	1.008
8.74	4.094
8.96	9.97
9.18	10.483
9.4	3.487
9.62	6.554
9.84	4.788
10.06	9.641
10.28	7.812
10.5	1.573
10.72	4.722
10.94	10.862
11.16	1.842
11.38	3.979
11.6	8.716
11.82	5.857
12.04	3.831
12.26	1.684
12.48	8.682
12.7	2.556
12.92	0.495
13.14	2.358
13.36	1.79
13.58	11.161
13.8	7.839
14.02	8.514
14.24	7.239
14.46	6.012
14.68	15.669
14.9	9.319
15.12	4.291
15.34	11.176
15.56	8.036
15.78	6.048
16	4.14
16.22	3.411
16.44	2.871
16.66	6.135
16.88	13.262
17.1	2.61
17.32	7.425
17.54	4.38
17.76	8.561
17.98	8.424
18.2	3.278
18.42	6.908
18.64	11.705
18.86	9.068
19.08	5.572
19.3	0.684
19.52	5.972
19.74	3.573
19.96	3.543
20.18	2.711
20.4	5.427
20.62	11.998
20.84	13.518
21.06	4.783
21.28	10.912
21.5	3.81
21.72	1.148
21.94	7.692
22.16	5.721
22.38	7.354
22.6	12.564
22.82	11.645
23.04	3.887
23.26	6.526
23.48	22.011
23.7	15.99
23.92	2.852
24.14	10.379
24.36	7.556
24.58	1.208
24.8	13.147
25.02	17.426
25.24	10.53
25.46	7.488
25.68	20.845
25.9	0.065
26.12	6.997
26.34	0.109
26.56	7.977
26.78	2.854
27	7.552
27.22	7.23
27.44	15.972
27.66	10.498
27.88	9.624
28.1	2.075
28.32	8.376
28.54	32.579
28.76	8.49
28.98	9.662
29.2	4.785
29.42	11.852
29.64	7.603
29.86	5.274
30.08	2.95
30.3	18.638
30.52	15.984
30.74	17.266
30.96	24.638
31.18	16.344
31.4	20.638
31.62	12.099
31.84	20.971
32.06	3.924
32.28	17.8
32.5	6.827
32.72	8.785
32.94	1.798
33.16	10.387
33.38	10.396
33.6	0.324
33.82	13.179
34.04	14.31
34.26	17.989
34.48	4.501
34.7	8.66
34.92	5.669
35.14	5.072
35.36	7.907
35.58	4.627
35.8	4.569
36.02	5.734
36.24	1.842
36.46	9.843
36.68	11.833
36.9	14.034
37.12	2.112
37.34	6.463
37.56	2.26
37.78	0.191
38	11.466
38.22	11.691
38.44	2.957
38.66	7.943
38.88	0.922
39.1	10.625
39.32	7.516
39.54	4.604
39.76	11.351
39.98	10.655
40.2	13.776
40.42	5.442
40.64	11.023
40.86	12.676
41.08	4.726
41.3	9.779
41.52	2.792
41.74	6.023
41.96	4.992
42.18	12.027
42.4	6.839
42.62	6.406
42.84	19.147
43.06	4.275
43.28	2.02
43.5	1.146
43.72	4.87
43.94	6.886
44.16	7.472
44.38	14.337
44.6	0.167
44.82	6.934
45.04	1.208
45.26	2.596
45.48	0.293
45.7	16.058
45.92	9.132
46.14	1.066
46.36	6.865
46.58	3.063
46.8	7.404
47.02	11.479
47.24	19.57
47.46	16.572
47.68	9.416
47.9	13.5
48.12	5.162
48.34	4.972
48.56	7.661
48.78	4.41
49	5.981
49.22	2.301
49.44	4.98
49.66	3.596
49.88	6.492
50.1	8.142
50.32	8.952
50.54	10.354
50.76	10.666
50.98	5.996
51.2	15.355
51.42	3.044
51.64	9.55
51.86	2.091
52.08	19.606
52.3	10.985
52.52	8.477
52.74	7.849
52.96	0.975
53.18	10.459
53.4	3.876
53.62	2.159
53.84	2.655
54.06	3.472
54.28	4.947
54.5	2.024
54.72	1.178
54.94	11.41
55.16	8.392
55.38	9.543
55.6	3.843
55.82	0.927
56.04	0.847
56.26	13.128
56.48	17.256
56.7	1.165
56.92	6.452
57.14	6.7
57.36	6.88
57.58	2.218
57.8	14.389
58.02	2.246
58.24	0.563
58.46	8.452
58.68	2.268
58.9	12.946
59.12	5.872
59.34	0.877
59.56	8.765
59.78	3.731
60	4.582
60.22	8.974
60.44	3.833
60.66	6.648
60.88	3.69
61.1	4.444
61.32	4.425
61.54	2.584
61.76	12.029
61.98	4.097
62.2	4.292
62.42	6.159
62.64	4.187
62.86	0.805
63.08	5.446
63.3	6.401
63.52	1.41
63.74	1.41
63.96	3.292
64.18	10.73
64.4	2.412
64.62	9.452
64.84	8.335
65.06	16.981
65.28	0.904
65.5	11.749
65.72	8.833
65.94	0.094
66.16	19.106
66.38	6.242
66.6	6.521
66.82	6.102
67.04	3.064
67.26	12.168
67.48	10.342
67.7	0.507
67.92	9.382
68.14	10.329
68.36	9.141
68.58	1.011
68.8	5.961
69.02	0.755
69.24	4.283
69.46	3.486
69.68	8.502
69.9	9.423
70.12	5.434
70.34	11.599
70.56	12.78
70.78	13.901
71	9.805
71.22	0.082
71.44	4.036
71.66	13.248
71.88	9.886
72.1	1.82
72.32	7.838
72.54	4.912
72.76	6.935
72.98	5.789
73.2	3.756
73.42	7.189
73.64	7.49
73.86	7.454
74.08	6.546
74.3	0.091
74.52	3.161
74.74	7.45
74.96	2.28
75.18	7.283
75.4	0.821
75.62	3.441
75.84	6.057
76.06	8.691
76.28	8.585
76.5	10.374
76.72	2.189
76.94	4.348
77.16	4.099
77.38	5.112
77.6	4.319
77.82	12.355
78.04	5.237
78.26	1.367
78.48	5.681
78.7	13.816
78.92	4.91
79.14	6.86
79.36	7.901
79.58	4.153
79.8	0.239
80.02	9.087
80.24	4.103
80.46	17.988
80.68	6.036
80.9	3.814
81.12	1.9
81.34	13.011
81.56	5.13
81.78	4.882
82	5.693
82.22	4.767
82.44	3.91
82.66	8.917
82.88	11.223
83.1	1.095
83.32	3.29
83.54	11.242
83.76	7.129
83.98	3.006
84.2	3.94
84.42	0.805
84.64	12.17
84.86	0.152
85.08	8.243
85.3	13.268
85.52	4.56
85.74	0.464
85.96	5.47
86.18	2.854
86.4	2.959
86.62	7.875
86.84	2.582
87.06	12.459
87.28	8.307
87.5	0.221
87.72	1.893
87.94	10.782
88.16	2.004
88.38	6.778
88.6	4.831
88.82	12.908
89.04	8.165
89.26	1.525
89.48	5.156
89.7	8.771
89.92	0.959
