Measurement: Powder, Xray Data XY Processed
Mineral: Cymrite
Rruff sample: R080032
Ideal chemistry: Ba(Si,Al)_4_(O,OH)_8_H_2_O
Locality: Langban, Filipstad, Varmland, Sweden
Source: Michael Scott
Description: Vitreous, massive opaque grey associated with calcite and phlogopite
Diffraction sample description: Powder, using Mo radiation
x	intensity
4.59	0
4.67	0.321671
4.75	10.6387
4.83	10.7743
4.91	1.91376
4.99	5.66043
5.07	15.9128
5.15	14.3723
5.23	32.8856
5.31	25.8815
5.39	23.6918
5.47	11.6006
5.55	21.5183
5.63	25.9143
5.71	25.7824
5.79	26.1786
5.87	42.561
5.95	40.5954
6.03	47.3048
6.11	46.7413
6.19	49.7541
6.27	115.91
6.35	158.336
6.43	128.902
6.51	59.3998
6.59	31.6014
6.67	41.8843
6.75	53.0372
6.83	65.3104
6.91	75.5078
6.99	88.8306
7.07	75.5269
7.15	35.886
7.23	35.2217
7.31	46.2156
7.39	22.2933
7.47	18.4162
7.55	19.5364
7.63	25.1511
7.71	10.1725
7.79	4.73422
7.87	8.13988
7.95	8.79059
8.03	5.08971
8.11	3.31445
8.19	4.44627
8.27	7.11746
8.35	3.67062
8.43	6.66435
8.51	0.212646
8.59	9.29303
8.67	24.1216
8.75	30.738
8.83	27.4225
8.91	40.2372
8.99	36.268
9.07	21.8118
9.15	20.2879
9.23	22.1093
9.31	9.68231
9.39	11.0356
9.47	18.5215
9.55	7.81393
9.63	0.861969
9.71	0.543243
9.79	2.73193
9.87	4.32404
9.95	0.569641
10.03	17.6106
10.11	56.5499
10.19	102.45
10.27	181.679
10.35	222.393
10.43	151.195
10.51	94.9333
10.59	88.8858
10.67	74.1529
10.75	51.4008
10.83	49.1721
10.91	25.122
10.99	15.8737
11.07	6.98816
11.15	38.5677
11.23	120.554
11.31	237.417
11.39	374.797
11.47	401.063
11.55	285.544
11.63	141.87
11.71	119.054
11.79	207.355
11.87	289.618
11.95	344.14
12.03	413.492
12.11	376.936
12.19	262.601
12.27	194.263
12.35	182.228
12.43	238.392
12.51	272.076
12.59	162.324
12.67	40.9936
12.75	3.60635
12.83	9.78192
12.91	1.38556
12.99	37.034
13.07	59.8645
13.15	70.8201
13.23	86.9132
13.31	81.4221
13.39	67.356
13.47	40.5887
13.55	33.3997
13.63	50.4768
13.71	88.3878
13.79	103.09
13.87	85.6496
13.95	42.3868
14.03	15.6649
14.11	28.6603
14.19	75.7707
14.27	133.814
14.35	131.442
14.43	82.9608
14.51	35.2611
14.59	4.82948
14.67	2.31125
14.75	10.1112
14.83	17.8342
14.91	22.4689
14.99	20.0919
15.07	25.1713
15.15	18.0894
15.23	37.193
15.31	51.2364
15.39	67.058
15.47	129.887
15.55	328.53
15.63	587.9
15.71	655.675
15.79	497.312
15.87	298.806
15.95	129.159
16.03	41.4619
16.11	9.2735
16.19	10.342
16.27	10.6301
16.35	34.4635
16.43	61.3849
16.51	78.8292
16.59	63.217
16.67	31.3202
16.75	4.95085
16.83	18.5439
16.91	31.1854
16.99	37.8336
17.07	31.29
17.15	10.8558
17.23	5.85922
17.31	15.3452
17.39	10.1634
17.47	3.15569
17.55	8.86083
17.63	26.1272
17.71	33.5641
17.79	48.2573
17.87	70.1231
17.95	127.01
18.03	166.392
18.11	145.004
18.19	103.578
18.27	73.3081
18.35	60.2504
18.43	70.6653
18.51	50.3017
18.59	40.6626
18.67	36.0249
18.75	29.9008
18.83	47.0332
18.91	86.4111
18.99	134.675
19.07	198.146
19.15	281.793
19.23	369.87
19.31	369.171
19.39	286.604
19.47	171.577
19.55	92.2006
19.63	48.6232
19.71	24.6801
19.79	26.7517
19.87	51.769
19.95	73.3911
20.03	107.445
20.11	174.017
20.19	298.951
20.27	338.014
20.35	262.135
20.43	125.263
20.51	47.2099
20.59	20.2716
20.67	14.182
20.75	6.67543
20.83	16.772
20.91	32.8388
20.99	46.2174
21.07	50.386
21.15	42.6734
21.23	50.2788
21.31	68.4497
21.39	68.3914
21.47	44.3665
21.55	21.5262
21.63	1.33328
21.71	1.11612
21.79	14.6603
21.87	70.6484
21.95	121.766
22.03	130.829
22.11	111.314
22.19	62.5048
22.27	31.3567
22.35	3.1828
22.43	9.31958
22.51	2.95355
22.59	2.32165
22.67	20.2502
22.75	45.5352
22.83	45.0832
22.91	35.8722
22.99	13.5832
23.07	5.373
23.15	5.82284
23.23	28.0567
23.31	38.7512
23.39	44.4469
23.47	35.4199
23.55	18.4915
23.63	11.3569
23.71	11.2392
23.79	20.7316
23.87	35.5276
23.95	36.4217
24.03	28.4198
24.11	14.612
24.19	0.697319
24.27	4.047
24.35	4.68429
24.43	18.0613
24.51	19.7503
24.59	12.1712
24.67	3.62888
24.75	2.17783
24.83	0.210533
24.91	6.57134
24.99	26.6824
25.07	45.022
25.15	43.6712
25.23	39.5168
25.31	11.6981
25.39	0.703156
25.47	1.85086
25.55	5.37723
25.63	17.5139
25.71	45.6683
25.79	64.7421
25.87	48.9697
25.95	25.091
26.03	12.3047
26.11	2.62018
26.19	2.40751
26.27	4.12225
26.35	7.17656
26.43	16.3863
26.51	62.2838
26.59	169.828
26.67	249.137
26.75	251.15
26.83	206.425
26.91	130.017
26.99	53.2071
27.07	25.3004
27.15	1.89278
27.23	0.869461
27.31	0.651405
27.39	15.5655
27.47	22.136
27.55	52.1658
27.63	97.7549
27.71	122.968
27.79	149.895
27.87	117.687
27.95	80.526
28.03	53.844
28.11	42.7915
28.19	22.1272
28.27	15.3117
28.35	34.266
28.43	64.1986
28.51	71.3376
28.59	67.2241
28.67	76.9528
28.75	68.98
28.83	52.3667
28.91	37.4817
28.99	24.4078
29.07	28.0561
29.15	31.1478
29.23	44.2027
29.31	54.2835
29.39	54.7458
29.47	95.239
29.55	103.198
29.63	80.1665
29.71	60.2579
29.79	38.106
29.87	16.4915
29.95	4.08036
30.03	8.70998
30.11	13.5933
30.19	12.1744
30.27	0.865448
30.35	10.4747
30.43	13.1675
30.51	8.87233
30.59	18.937
30.67	8.85738
30.75	18.8278
30.83	34.8368
30.91	35.6769
30.99	46.955
31.07	53.7747
31.15	59.5025
31.23	25.8913
31.31	13.226
31.39	3.08669
31.47	2.15948
31.55	13.1225
31.63	11.5073
31.71	30.4404
31.79	36.4467
31.87	39.4778
31.95	40.5839
32.03	28.0358
32.11	13.8944
32.19	7.01616
32.27	4.64977
32.35	1.409
32.43	9.05111
32.51	26.2331
32.59	23.7892
32.67	11.4251
32.75	13.9536
32.83	15.1958
32.91	6.81037
32.99	0.649689
33.07	2.88
33.15	0.999413
33.23	1.09123
33.31	0.149902
33.39	14.0479
33.47	12.8236
33.55	16.2346
33.63	16.9291
33.71	21.7899
33.79	43.1232
33.87	62.6007
33.95	42.692
34.03	24.6271
34.11	21.016
34.19	15.8793
34.27	0.747017
34.35	6.12606
34.43	13.331
34.51	27.1656
34.59	0
