Measurement: Powder, Xray Data XY Processed
Mineral: Danburite
Rruff sample: R050602
Ideal chemistry: CaB_2_Si_2_O_8_
Locality: Mogok, Burma
Source: Bill Larson
Description: Yellowish brown fragment
Diffraction sample description: Powder
Measured chemistry: Ca_1.00_B_2.00_(Si_1.00_O_4_)_2_
Cell parameters: a: 8.0471(2) b: 8.7657(2) c: 7.7362(4) alpha: 90. beta: 90. gamma: 90. volume: 545.71(2) crystal system: orthorhombic
x	intensity
5	0
5.22	6.73534
5.44	3.01746
5.66	3.69898
5.88	10.8133
6.1	13.0336
6.32	6.55395
6.54	7.71296
6.76	4.18618
6.98	7.00665
7.2	15.6881
7.42	15.6157
7.64	2.25868
7.86	4.94695
8.08	3.58376
8.3	8.40604
8.52	4.87084
8.74	2.252
8.96	1.60957
9.18	6.08555
9.4	3.0132
9.62	5.18146
9.84	2.15082
10.06	2.42551
10.28	0.442782
10.5	4.82606
10.72	3.88712
10.94	7.01759
11.16	2.22111
11.38	4.42585
11.6	5.50682
11.82	4.86496
12.04	6.07571
12.26	1.22513
12.48	6.39193
12.7	7.69062
12.92	2.3523
13.14	0.953629
13.36	5.11902
13.58	5.23285
13.8	8.31338
14.02	0.332968
14.24	3.21304
14.46	9.28416
14.68	2.33928
14.9	2.212
15.12	0.080601
15.34	10.1922
15.56	3.06678
15.78	3.00282
16	5.0477
16.22	1.03108
16.44	1.02771
16.66	2.99999
16.88	1.04037
17.1	2.99316
17.32	2.05236
17.54	5.07533
17.76	6.95858
17.98	3.06576
18.2	2.26644
18.42	5.27896
18.64	6.38242
18.86	2.4857
19.08	4.56632
19.3	4.51666
19.52	4.55256
19.74	4.6754
19.96	3.76766
20.18	1.89112
20.4	5.84999
20.62	0.821962
20.84	1.30095
21.06	4.55849
21.28	3.45065
21.5	2.36448
21.72	0.510632
21.94	4.35026
22.16	34.1636
22.38	3.94993
22.6	3.20475
22.82	4.04484
23.04	87.9037
23.26	0.75817
23.48	2.69989
23.7	1.63553
23.92	0.436975
24.14	1.02283
24.36	28.927
24.58	8.81677
24.8	7.57815
25.02	220.089
25.24	9.96562
25.46	4.2883
25.68	7.34837
25.9	173.285
26.12	3.31614
26.34	1.45423
26.56	8.62804
26.78	7.72307
27	129.946
27.22	12.2536
27.44	10.5375
27.66	59.7391
27.88	4.49726
28.1	0.714525
28.32	2.90897
28.54	0.002174
28.76	3.12282
28.98	1.12128
29.2	5.07873
29.42	6.02817
29.64	8.83127
29.86	6.61907
30.08	10.6893
30.3	54.4935
30.52	0.492203
30.74	6.42214
30.96	20.6134
31.18	3.71337
31.4	0.655749
31.62	5.60764
31.84	5.45468
32.06	2.59543
32.28	2.40406
32.5	5.07272
32.72	83.0116
32.94	19.807
33.16	4.85979
33.38	1.69894
33.6	2.82012
33.82	53.9374
34.04	8.05779
34.26	3.2148
34.48	1.50496
34.7	2.57749
34.92	3.94073
35.14	16.1117
35.36	5.20282
35.58	3.10025
35.8	2.09825
36.02	1.78471
36.24	8.76125
36.46	12.9166
36.68	4.86567
36.9	16.702
37.12	15.6873
37.34	0.369181
37.56	1.36505
37.78	1.65436
38	4.83956
38.22	8.99686
38.44	11.1204
38.66	2.24458
38.88	6.27622
39.1	2.51009
39.32	3.65437
39.54	4.71705
39.76	9.77779
39.98	0.590401
40.2	0.391137
40.42	4.27927
40.64	4.04989
40.86	3.8518
41.08	2.72842
41.3	12.4572
41.52	6.26673
41.74	23.0863
41.96	7.07214
42.18	33.2757
42.4	51.3705
42.62	7.6282
42.84	5.68194
43.06	9.02479
43.28	1.20068
43.5	6.43329
43.72	3.50813
43.94	2.43646
44.16	5.43128
44.38	5.43635
44.6	3.40134
44.82	5.19668
45.04	29.8369
45.26	8.69454
45.48	4.20124
45.7	0.032581
45.92	24.5839
46.14	19.4126
46.36	4.37939
46.58	8.34242
46.8	44.9936
47.02	31.8029
47.24	1.15769
47.46	6.45571
47.68	3.6534
47.9	40.0173
48.12	9.41452
48.34	1.90075
48.56	4.13991
48.78	12.3351
49	4.50601
49.22	6.71949
49.44	1.88522
49.66	3.90605
49.88	3.8391
50.1	5.05656
50.32	11.1165
50.54	0.028494
50.76	0.848396
50.98	2.76002
51.2	0.368887
51.42	3.58219
51.64	5.51861
51.86	3.45355
52.08	6.15871
52.3	17.0232
52.52	7.62856
52.74	3.35002
52.96	5.34266
53.18	7.38157
53.4	5.43108
53.62	46.8636
53.84	3.89141
54.06	5.06111
54.28	1.95526
54.5	5.14415
54.72	1.23325
54.94	5.45054
55.16	1.54423
55.38	18.5053
55.6	51.3332
55.82	7.48108
56.04	0.807415
56.26	12.1269
56.48	2.92832
56.7	4.04157
56.92	2.27718
57.14	0.691082
57.36	6.0936
57.58	1.08831
57.8	0.946819
58.02	5.00552
58.24	2.85281
58.46	13.7015
58.68	1.68358
58.9	24.7364
59.12	1.67961
59.34	4.64988
59.56	6.80018
59.78	13.8812
60	1.03209
60.22	1.22652
60.44	1.60501
60.66	3.48728
60.88	0.627402
61.1	4.69108
61.32	4.68492
61.54	0.359885
61.76	0.398903
61.98	1.43134
62.2	10.4572
62.42	19.5135
62.64	0.604687
62.86	2.68881
63.08	2.63083
63.3	3.58823
63.52	3.56439
63.74	3.53206
63.96	5.42544
64.18	4.60204
64.4	6.47244
64.62	20.4434
64.84	9.3149
65.06	6.24515
65.28	2.00708
65.5	13.9234
65.72	5.00747
65.94	5.00439
66.16	6.00106
66.38	10.2154
66.6	11.0424
66.82	0.235749
67.04	4.33606
67.26	5.22336
67.48	0.812784
67.7	6.25056
67.92	4.45927
68.14	2.5369
68.36	12.6835
68.58	5.854
68.8	5.70661
69.02	0.716542
69.24	0.5618
69.46	0.642633
69.68	7.78215
69.9	14.7901
70.12	1.7996
70.34	2.61396
70.56	2.63384
70.78	1.55501
71	8.54738
71.22	5.73673
71.44	5.74751
71.66	5.83408
71.88	0.653541
72.1	2.51841
72.32	6.48993
72.54	5.43139
72.76	11.3354
72.98	1.13043
73.2	1.02525
73.42	5.86689
73.64	1.71636
73.86	10.6735
74.08	12.724
74.3	7.89677
74.52	2.87633
74.74	3.87622
74.96	5.91467
75.18	4.07067
75.4	6.17717
75.62	4.44771
75.84	7.55208
76.06	5.53895
76.28	7.55024
76.5	2.46157
76.72	3.37898
76.94	2.31236
77.16	9.29574
77.38	3.22854
77.6	8.09684
77.82	8.98674
78.04	5.87839
78.26	0.185227
78.48	5.92014
78.7	4.16493
78.92	4.23528
79.14	0.488852
79.36	5.61544
79.58	2.75295
79.8	1.89186
80.02	0.924908
80.24	0.918187
80.46	1.77498
80.68	8.71038
80.9	6.54904
81.12	2.30101
81.34	7.16361
81.56	6.95927
81.78	5.86427
82	3.79192
82.22	2.75197
82.44	1.80038
82.66	7.98018
82.88	7.13312
83.1	3.19484
83.32	6.30472
83.54	5.43895
83.76	0.489779
83.98	5.50822
84.2	5.54951
84.42	4.64435
84.64	5.51739
84.86	1.50871
85.08	5.30113
85.3	8.15389
85.52	0.102251
85.74	4.92966
85.96	14.1389
86.18	8.02942
86.4	2.9934
86.62	4.02834
86.84	3.06476
87.06	3.33908
87.28	4.46699
87.5	1.58075
87.72	11.7587
87.94	0.154098
88.16	4.05739
88.38	5.91471
88.6	10.9224
88.82	3.80289
89.04	5.86009
89.26	1.6605
89.48	10.5464
89.7	4.86303
89.92	1.14768
