Measurement: Powder, Xray Data XY Processed
Mineral: Decrespignyite-(Y)
Rruff sample: R060302
Ideal chemistry: Y^3+^_4_Cu^2+^(CO_3_)_4_Cl(OH)_5_2H_2_O
Locality: Paratoo mine, Paratoo, South Australia, Australia
Source: Michael Scott
Description: Blue massive crust
Diffraction sample description: Powder, using Mo radiation
Cell parameters: a: 8.60(1) b: 8.60(1) c: 22.63(4) alpha: 90 beta: 90 gamma: 120 volume: 1450(2) crystal system: hexagonal
x	intensity
5.3	0
5.42	13.825
5.54	47.1185
5.66	164.5
5.78	203.444
5.9	172.548
6.02	56.1801
6.14	3.84889
6.26	180.143
6.38	625.486
6.5	1122.07
6.62	1194.48
6.74	871.374
6.86	393.661
6.98	96.7862
7.1	49.6088
7.22	10.0782
7.34	2.15274
7.46	12.962
7.58	0.632083
7.7	14.2015
7.82	18.1343
7.94	1.56194
8.06	1.05889
8.18	5.41882
8.3	7.58313
8.42	3.63524
8.54	0.492787
8.66	0.656257
8.78	6.26203
8.9	53.2472
9.02	62.8255
9.14	55.3033
9.26	118.82
9.38	151.326
9.5	237.06
9.62	287.934
9.74	266.777
9.86	210.031
9.98	164.333
10.1	173.885
10.22	150.886
10.34	93.3094
10.46	21.2585
10.58	9.91749
10.7	75.813
10.82	204.294
10.94	387.065
11.06	518.753
11.18	520.44
11.3	431.909
11.42	487.564
11.54	559.969
11.66	529.304
11.78	399.208
11.9	316.836
12.02	360.396
12.14	474.475
12.26	517.753
12.38	460.503
12.5	350.016
12.62	247.189
12.74	226.767
12.86	249.674
12.98	284.386
13.1	311.947
13.22	253.92
13.34	180.174
13.46	95.975
13.58	28.4066
13.7	9.14292
13.82	1.58867
13.94	38.4817
14.06	112.089
14.18	164.787
14.3	240.45
14.42	275.714
14.54	297.604
14.66	324.638
14.78	284.215
14.9	214.304
15.02	177.641
15.14	115.207
15.26	112.352
15.38	104.227
15.5	91.1468
15.62	30.2489
15.74	13.6037
15.86	15.3692
15.98	15.8781
16.1	1.44148
16.22	15.6163
16.34	6.11425
16.46	17.1489
16.58	58.2942
16.7	75.9119
16.82	60.3642
16.94	39.6745
17.06	73.626
17.18	95.0806
17.3	147.422
17.42	157.536
17.54	131.273
17.66	92.0074
17.78	132.615
17.9	209.869
18.02	311.421
18.14	310.864
18.26	268.322
18.38	221.929
18.5	205.814
18.62	246.787
18.74	304.058
18.86	397.287
18.98	523.083
19.1	558.688
19.22	422.222
19.34	223.383
19.46	121.664
19.58	131.179
19.7	228.456
19.82	347.147
19.94	410.091
20.06	392.081
20.18	329.999
20.3	268.071
20.42	245.104
20.54	184.388
20.66	134.591
20.78	93.6137
20.9	67.4486
21.02	40.4373
21.14	31.134
21.26	4.76117
21.38	0.636528
21.5	0.071495
21.62	7.24279
21.74	2.11208
21.86	5.29751
21.98	2.75495
22.1	10.1491
22.22	2.29366
22.34	12.8091
22.46	41.5749
22.58	48.3199
22.7	66.8932
22.82	58.3441
22.94	57.1656
23.06	59.7558
23.18	53.9612
23.3	25.8236
23.42	38.5361
23.54	19.9528
23.66	25.3106
23.78	50.4087
23.9	88.5468
24.02	156.642
24.14	217.512
24.26	242.363
24.38	193.052
24.5	95.3128
24.62	0.428167
24.74	0.676281
24.86	19.3746
24.98	3.78299
25.1	11.5846
25.22	8.89748
25.34	59.6626
25.46	80.5128
25.58	92.1839
25.7	84.4467
25.82	92.3202
25.94	100.527
26.06	60.578
26.18	71.5323
26.3	91.1498
26.42	107.161
26.54	94.4288
26.66	101.261
26.78	111.07
26.9	103.598
27.02	96.3863
27.14	66.6523
27.26	47.7015
27.38	52.2303
27.5	45.9986
27.62	58.1147
27.74	64.9569
27.86	31.4643
27.98	9.74588
28.1	5.58139
28.22	5.125
28.34	1.04678
28.46	11.4768
28.58	40.3588
28.7	70.2048
28.82	90.7119
28.94	89.8544
29.06	95.1571
29.18	55.3246
29.3	34.5589
29.42	16.192
29.54	42.2173
29.66	15.3156
29.78	33.0476
29.9	39.4787
30.02	31.9264
30.14	18.1542
30.26	16.9762
30.38	3.92252
30.5	1.16633
30.62	0.957716
30.74	5.69093
30.86	10.3282
30.98	18.6639
31.1	24.7293
31.22	39.2548
31.34	44.5995
31.46	21.564
31.58	10.6784
31.7	10.431
31.82	1.89192
31.94	6.5515
32.06	49.512
32.18	37.8393
32.3	18.154
32.42	5.01383
32.54	18.6817
32.66	1.50563
32.78	0.024749
32.9	1.56838
33.02	2.30733
33.14	1.86072
33.26	10.5952
33.38	13.6836
33.5	5.07008
33.62	30.4035
33.74	49.8816
33.86	60.0729
33.98	51.314
34.1	36.1551
34.22	35.0804
34.34	47.9347
34.46	55.5675
34.58	60.7634
34.7	121.103
34.82	105.934
34.94	116.052
35.06	100.298
35.18	93.6201
35.3	75.9888
35.42	66.9626
35.54	51.2664
35.66	48.7181
35.78	60.5237
35.9	58.7135
36.02	51.429
36.14	57.0265
36.26	46.6426
36.38	45.2867
36.5	27.5882
36.62	38.4694
36.74	42.9261
36.86	15.1824
36.98	1.98504
37.1	3.43459
37.22	2.34891
37.34	3.64724
37.46	2.09771
37.58	2.46872
37.7	1.92339
37.82	2.60508
37.94	1.42355
38.06	3.31246
38.18	0.828659
38.3	21.2877
38.42	32.3724
38.54	34.7008
38.66	29.3026
38.78	23.029
38.9	60.0539
39.02	79.8975
39.14	91.7955
39.26	75.6261
39.38	72.3211
39.5	43.8752
39.62	58.1086
39.74	50.2923
39.86	45.1814
39.98	38.6915
40.1	51.2079
40.22	49.4489
40.34	63.6078
40.46	62.811
40.58	57.4832
40.7	48.1692
40.82	38.0523
40.94	54.5274
41.06	57.782
41.18	61
41.3	59.308
41.42	39.5138
41.54	33.9179
41.66	31.6729
41.78	24.8417
41.9	9.9809
42.02	1.17714
42.14	10.4753
42.26	17.9149
42.38	0.216554
42.5	1.42128
42.62	16.6558
42.74	26.818
42.86	9.5148
42.98	0.421029
43.1	4.21323
43.22	14.0806
43.34	4.61305
43.46	17.8059
43.58	24.1226
43.7	7.34314
43.82	24.891
43.94	8.97101
44.06	19.3083
44.18	4.04329
44.3	2.3505
44.42	19.4614
44.54	16.2635
44.66	6.77677
44.78	12.2245
44.9	24.3183
45.02	41.5945
45.14	30.9038
45.26	23.2221
45.38	22.5454
45.5	25.7701
45.62	32.4081
45.74	24.0136
45.86	28.8689
45.98	14.0334
46.1	36.889
46.22	33.5457
46.34	29.0685
46.46	30.8631
46.58	40.6076
46.7	34.7546
46.82	2.05313
46.94	2.83705
47.06	13.6602
47.18	12.0315
47.3	0.14998
47.42	5.70749
47.54	16.234
47.66	1.55284
47.78	15.169
47.9	24.1152
48.02	21.259
48.14	33.0572
48.26	31.8128
48.38	47.976
48.5	47.6918
48.62	38.3069
48.74	4.8419
48.86	6.42934
48.98	19.022
49.1	16.7464
49.22	13.0867
