Measurement: Powder, Xray Data XY Processed
Mineral: Delhayelite
Rruff sample: R060816
Ideal chemistry: K_7_Na_3_Ca_5_Al_2_Si_14_O_38_F_4_Cl_2_
Locality: Chibiny, Kola Peninsula, Russia
Source: Bob Jenkins
Description: Dark brown platy fragment
Diffraction sample description: Powder
Cell parameters: a: 24.572(2) b: 7.0554(8) c: 6.5712(8) alpha: 90 beta: 90 gamma: 90 volume: 1139.2(2) crystal system: orthorhombic
x	intensity
5	0
5.22	3.36699
5.44	10.6976
5.66	20.2718
5.88	1.84239
6.1	1.41381
6.32	6.71811
6.54	12.1278
6.76	6.79832
6.98	20.8378
7.2	316.036
7.42	8.99324
7.64	11.2092
7.86	0.180124
8.08	11.346
8.3	10.2158
8.52	4.00324
8.74	18.9839
8.96	9.77737
9.18	11.3417
9.4	4.24228
9.62	2.35564
9.84	5.83405
10.06	11.0859
10.28	5.3642
10.5	2.27444
10.72	0.353334
10.94	3.73369
11.16	4.0423
11.38	10.402
11.6	7.34422
11.82	8.18902
12.04	4.86467
12.26	1.3132
12.48	0.848287
12.7	2.33177
12.92	4.07372
13.14	7.65059
13.36	7.17474
13.58	5.83976
13.8	2.24548
14.02	5.88988
14.24	3.7416
14.46	98.8918
14.68	13.9498
14.9	17.313
15.12	9.00821
15.34	5.01069
15.56	0.297523
15.78	6.45948
16	2.67267
16.22	2.53881
16.44	5.56717
16.66	11.7014
16.88	3.56634
17.1	5.97887
17.32	17.583
17.54	11.1851
17.76	8.31158
17.98	5.32265
18.2	0.497105
18.42	2.55197
18.64	4.56754
18.86	1.77771
19.08	0.875475
19.3	6.82536
19.52	1.24823
19.74	29.0962
19.96	6.23952
20.18	0.257773
20.4	8.28396
20.62	0.587276
20.84	4.75783
21.06	3.02288
21.28	7.0195
21.5	26.1082
21.72	19.4631
21.94	7.65922
22.16	9.61814
22.38	5.48259
22.6	0.22436
22.82	9.98407
23.04	12.6723
23.26	4.64712
23.48	12.6595
23.7	1.35665
23.92	7.08154
24.14	5.29635
24.36	10.8022
24.58	5.31111
24.8	7.9005
25.02	5.22978
25.24	43.8969
25.46	7.51138
25.68	55.1867
25.9	7.64479
26.12	10.4276
26.34	12.8995
26.56	2.75663
26.78	2.57094
27	12.9331
27.22	10.147
27.44	24.3294
27.66	0.255337
27.88	5.7343
28.1	10.1482
28.32	0.367296
28.54	12.7625
28.76	15.1755
28.98	80.1903
29.2	43.1837
29.42	7.69011
29.64	8.37955
29.86	14.0693
30.08	8.34805
30.3	26.2547
30.52	5.37202
30.74	107.446
30.96	28.9506
31.18	9.36161
31.4	2.7939
31.62	37.341
31.84	13.6604
32.06	19.248
32.28	33.8749
32.5	10.9755
32.72	7.34766
32.94	3.8584
33.16	2.31687
33.38	10.1244
33.6	5.68126
33.82	3.07076
34.04	10.322
34.26	0.810854
34.48	8.91696
34.7	6.46617
34.92	6.71532
35.14	15.1816
35.36	10.3103
35.58	12.9186
35.8	10.8242
36.02	12.1486
36.24	30.3714
36.46	10.7971
36.68	15.2082
36.9	4.55641
37.12	9.85113
37.34	9.7581
37.56	9.89691
37.78	5.96973
38	7.73107
38.22	7.67139
38.44	7.06388
38.66	6.82143
38.88	4.55764
39.1	7.38749
39.32	15.4574
39.54	7.02555
39.76	11.5915
39.98	11.3714
40.2	5.17459
40.42	4.98002
40.64	9.9175
40.86	12.4901
41.08	11.5229
41.3	17.4677
41.52	7.74858
41.74	2.75821
41.96	10.0138
42.18	6.83826
42.4	4.2026
42.62	1.0384
42.84	7.25355
43.06	3.32821
43.28	16.4668
43.5	15.6994
43.72	8.01556
43.94	0.904547
44.16	14.1087
44.38	5.16608
44.6	0.14208
44.82	0.637888
45.04	6.91056
45.26	11.0915
45.48	14.4642
45.7	14.5638
45.92	10.5229
46.14	1.61921
46.36	4.81027
46.58	4.13519
46.8	5.96567
47.02	17.0329
47.24	10.0037
47.46	9.98777
47.68	22.9828
47.9	5.70987
48.12	10.9762
48.34	8.11547
48.56	5.05316
48.78	7.1898
49	11.7728
49.22	1.01846
49.44	8.10887
49.66	9.0722
49.88	7.35782
50.1	0.501863
50.32	12.8494
50.54	8.63543
50.76	5.76532
50.98	2.6695
51.2	15.8554
51.42	8.26602
51.64	8.12465
51.86	18.6724
52.08	24.7403
52.3	2.60965
52.52	9.56175
52.74	14.639
52.96	5.79978
53.18	6.91862
53.4	5.1519
53.62	10.126
53.84	9.26819
54.06	12.7729
54.28	6.51644
54.5	6.13326
54.72	9.33631
54.94	1.35426
55.16	5.88097
55.38	6.06777
55.6	11.2415
55.82	7.18241
56.04	3.18607
56.26	2.68997
56.48	12.1208
56.7	2.96755
56.92	11.472
57.14	5.71369
57.36	2.88872
57.58	11.4009
57.8	7.2414
58.02	9.11841
58.24	8.29896
58.46	13.1526
58.68	2.28962
58.9	5.53961
59.12	7.56636
59.34	10.6093
59.56	1.38551
59.78	3.36998
60	8.63621
60.22	12.6288
60.44	11.6815
60.66	15.5392
60.88	0.337873
61.1	6.78164
61.32	2.88331
61.54	4.17751
61.76	6.31542
61.98	5.65991
62.2	2.63124
62.42	0.677208
62.64	9.99478
62.86	9.1592
63.08	3.23308
63.3	1.3401
63.52	9.00077
63.74	1.96504
63.96	11.0276
64.18	19.9474
64.4	5.8669
64.62	1.1053
64.84	5.86825
65.06	4.94357
65.28	7.03268
65.5	4.1176
65.72	6.14232
65.94	9.21938
66.16	10.2331
66.38	6.30304
66.6	6.23343
66.82	9.16694
67.04	2.9607
67.26	12.0418
67.48	3.92875
67.7	0.201174
67.92	2.01233
68.14	0.183424
68.36	7.25252
68.58	0.367595
68.8	5.15845
69.02	7.33591
69.24	2.4147
69.46	0.532854
69.68	15.4744
69.9	4.57093
70.12	4.0668
70.34	4.85826
70.56	10.7425
70.78	7.43384
71	3.38971
71.22	1.57089
71.44	1.49306
71.66	7.44229
71.88	3.39583
72.1	7.56446
72.32	6.81542
72.54	5.32493
72.76	1.52031
72.98	8.58326
73.2	9.61616
73.42	3.5707
73.64	13.3602
73.86	8.90618
74.08	10.0509
74.3	10.0282
74.52	5.94825
74.74	0.690126
74.96	2.72153
75.18	3.01537
75.4	3.09771
75.62	3.11576
75.84	8.1395
76.06	5.20585
76.28	5.7443
76.5	9.9233
76.72	2.92852
76.94	1.00034
77.16	0.21452
77.38	5.06749
77.6	1.20447
77.82	10.1635
78.04	0.493992
78.26	5.54843
78.48	10.6408
78.7	3.7151
78.92	5.65695
79.14	1.82123
79.36	6.78321
79.58	7.54718
79.8	5.47835
80.02	4.4932
80.24	8.19986
80.46	7.02197
80.68	4.03833
80.9	4.99004
81.12	3.088
81.34	4.93696
81.56	0.935461
81.78	4.30374
82	3.44912
82.22	6.40965
82.44	1.58878
82.66	10.5878
82.88	7.60822
83.1	4.58325
83.32	3.47658
83.54	9.41432
83.76	8.79688
83.98	11.5704
84.2	8.5848
84.42	4.45998
84.64	7.26586
84.86	8.53049
85.08	13.4949
85.3	7.26101
85.52	6.35529
85.74	6.59004
85.96	3.48517
86.18	2.15305
86.4	10.9443
86.62	8.65185
86.84	11.5961
87.06	2.53549
87.28	2.64417
87.5	1.33689
87.72	9.51048
87.94	9.65539
88.16	3.74798
88.38	2.9664
88.6	8.03491
88.82	5.40969
89.04	3.859
89.26	8.20533
89.48	1.71392
89.7	5.23135
89.92	0.840104
