Measurement: Powder, Xray Data XY Processed
Mineral: Descloizite
Rruff sample: R050509
Ideal chemistry: Pb^2+^Zn^2+^V^5+^O_4_(OH)
Locality: Grootfontein district, Namibia
Source: University of Arizona Mineral Museum
Description: Group of brown tabular crystals
Diffraction sample description: Powder
Measured chemistry: Pb_1.00_(Zn_0.85_Cu_0.15_)_Σ=1_((V_0.97_As_0.03_)_Σ=1_O_4_)(OH) ; (OH) estimated by difference and stoichiometry
Cell parameters: a: 7.6120(8) b: 6.0570(9) c: 9.432(1) alpha: 90. beta: 90. gamma: 90. volume: 434.91(6) crystal system: orthorhombic
x	intensity
5	0
5.22	8.29748
5.44	8.48828
5.66	7.872
5.88	12.2573
6.1	4.75617
6.32	13.5562
6.54	7.24399
6.76	5.84782
6.98	4.80497
7.2	6.16754
7.42	5.37583
7.64	5.4198
7.86	7.12691
8.08	3.50534
8.3	7.91149
8.52	6.33685
8.74	4.87905
8.96	0.275561
9.18	2.65058
9.4	2.66098
9.62	3.52824
9.84	5.56063
10.06	0.46074
10.28	10.0558
10.5	5.89192
10.72	9.6947
10.94	8.4251
11.16	11.2451
11.38	8.2157
11.6	8.00799
11.82	5.03431
12.04	3.01806
12.26	6.53635
12.48	8.94458
12.7	5.02273
12.92	3.34084
13.14	4.57471
13.36	5.69584
13.58	8.55111
13.8	1.37555
14.02	3.30708
14.24	3.23315
14.46	8.32724
14.68	1.59448
14.9	6.48216
15.12	5.40791
15.34	2.61287
15.56	1.64119
15.78	7.20723
16	9.11439
16.22	4.03367
16.44	1.93525
16.66	1.00985
16.88	6.78192
17.1	6.90738
17.32	39.8989
17.54	15.846
17.76	1.30389
17.98	0.389928
18.2	10.7753
18.42	3.89592
18.64	5.40819
18.86	62.6603
19.08	3.65726
19.3	6.90025
19.52	5.82682
19.74	5.63737
19.96	9.50015
20.18	18.3793
20.4	0.235355
20.62	3.92273
20.84	13.6396
21.06	73.9741
21.28	8.62338
21.5	7.67495
21.72	13.2331
21.94	11.2102
22.16	94.3348
22.38	10.4082
22.6	2.83855
22.82	3.85044
23.04	4.14511
23.26	4.58691
23.48	10.6528
23.7	2.72914
23.92	4.42021
24.14	14.2794
24.36	3.95203
24.58	5.00043
24.8	10.8047
25.02	5.85611
25.24	168.919
25.46	5.22671
25.68	2.76942
25.9	1.60072
26.12	3.45891
26.34	2.17097
26.56	14.9135
26.78	24.7854
27	5.53597
27.22	3.10154
27.44	8.94303
27.66	391.214
27.88	22.31
28.1	6.52003
28.32	6.5484
28.54	7.4358
28.76	6.57571
28.98	14.5437
29.2	6.34753
29.42	25.2007
29.64	34.0071
29.86	4.56199
30.08	10.1372
30.3	17.234
30.52	3.77078
30.74	233.242
30.96	29.5329
31.18	10.8359
31.4	2.13051
31.62	6.48768
31.84	9.45183
32.06	3.23931
32.28	5.96523
32.5	0.357865
32.72	3.91547
32.94	2.91688
33.16	56.1035
33.38	51.6469
33.6	71.2464
33.82	142.929
34.04	5.72216
34.26	266.877
34.48	8.26541
34.7	5.9145
34.92	2.12945
35.14	17.9415
35.36	18.4928
35.58	9.00026
35.8	0.370881
36.02	7.3217
36.24	12.011
36.46	3.65655
36.68	46.9995
36.9	3.88237
37.12	22.5077
37.34	6.2334
37.56	5.45567
37.78	5.57728
38	19.313
38.22	8.0042
38.44	4.75032
38.66	4.37108
38.88	2.28598
39.1	23.2921
39.32	70.1843
39.54	3.98673
39.76	0.467753
39.98	75.7552
40.2	20.6953
40.42	30.1432
40.64	5.91445
40.86	4.63111
41.08	4.04516
41.3	1.84456
41.52	9.1136
41.74	3.31167
41.96	7.41987
42.18	0.848856
42.4	0.640571
42.62	6.33725
42.84	59.1086
43.06	48.4398
43.28	50.2552
43.5	6.65338
43.72	4.51973
43.94	10.5564
44.16	0.509601
44.38	6.41366
44.6	3.39019
44.82	2.6478
45.04	8.2484
45.26	11.6556
45.48	5.08469
45.7	0.376047
45.92	35.2148
46.14	23.2492
46.36	8.45028
46.58	0.212894
46.8	1.9661
47.02	7.65432
47.24	7.38258
47.46	0.995836
47.68	44.2572
47.9	13.0073
48.12	0.1015
48.34	11.8213
48.56	80.8972
48.78	10.8725
49	18.8764
49.22	4.11354
49.44	3.98012
49.66	4.79077
49.88	8.56214
50.1	0.17499
50.32	1.34131
50.54	53.882
50.76	38.28
50.98	10.2855
51.2	49.5486
51.42	33.7374
51.64	3.13476
51.86	72.5565
52.08	23.8998
52.3	40.9163
52.52	3.08679
52.74	10.9939
52.96	16.8706
53.18	13.4392
53.4	7.35688
53.62	9.82252
53.84	8.75467
54.06	7.18999
54.28	18.202
54.5	4.17491
54.72	11.4894
54.94	6.15286
55.16	13.7731
55.38	61.8559
55.6	62.9403
55.82	20.1243
56.04	4.15415
56.26	3.39087
56.48	3.64876
56.7	3.93572
56.92	5.73361
57.14	159.215
57.36	27.2729
57.58	13.1564
57.8	5.7212
58.02	5.47194
58.24	0.516356
58.46	6.53663
58.68	74.9755
58.9	59.1829
59.12	35.3676
59.34	22.0873
59.56	0.842209
59.78	2.306
60	0.51328
60.22	2.65253
60.44	4.1343
60.66	3.89729
60.88	11.4581
61.1	25.0919
61.32	38.5208
61.54	20.1328
61.76	15.5813
61.98	17.3217
62.2	3.28595
62.42	1.27795
62.64	7.42863
62.86	8.44603
63.08	12.5668
63.3	16.0159
63.52	9.11315
63.74	4.69466
63.96	4.13398
64.18	6.55852
64.4	8.43148
64.62	2.6028
64.84	2.76102
65.06	1.71357
65.28	6.79356
65.5	0.782875
65.72	9.71471
65.94	24.6077
66.16	80.2738
66.38	26.9571
66.6	2.87584
66.82	2.48288
67.04	10.8878
67.26	9.82858
67.48	11.7538
67.7	0.924435
67.92	9.27731
68.14	4.92219
68.36	15.7308
68.58	16.4757
68.8	6.45474
69.02	3.94824
69.24	10.4755
69.46	10.0028
69.68	7.02118
69.9	12.1555
70.12	16.4691
70.34	10.3178
70.56	17.6424
70.78	10.9495
71	0.294372
71.22	2.49547
71.44	5.85146
71.66	13.3875
71.88	12.0652
72.1	5.39012
72.32	18.4062
72.54	4.04422
72.76	2.08967
72.98	2.10252
73.2	5.11414
73.42	3.06562
73.64	5.02019
73.86	2.51932
74.08	7.63287
74.3	8.99159
74.52	5.85537
74.74	7.72221
74.96	1.39764
75.18	0.372453
75.4	1.16037
75.62	3.06636
75.84	13.0371
76.06	10.0932
76.28	17.379
76.5	12.7031
76.72	14.5155
76.94	13.7301
77.16	2.09586
77.38	6.66443
77.6	6.9759
77.82	10.174
78.04	8.2032
78.26	3.15356
78.48	1.05478
78.7	14.8903
78.92	21.3198
79.14	5.62204
79.36	7.5251
79.58	0.497336
79.8	9.2705
80.02	6.95789
80.24	3.7677
80.46	1.62251
80.68	8.43236
80.9	6.67727
81.12	17.5728
81.34	18.446
81.56	22.278
81.78	24.1305
82	8.73821
82.22	8.33466
82.44	5.51702
82.66	8.01942
82.88	11.5535
83.1	15.6888
83.32	5.43039
83.54	6.58441
83.76	3.25867
83.98	8.93106
84.2	7.55254
84.42	9.85941
84.64	2.86419
84.86	15.5462
85.08	2.94989
85.3	2.33116
85.52	0.896037
85.74	8.82034
85.96	9.59288
86.18	11.1483
86.4	22.4343
86.62	34.0696
86.84	19.8089
87.06	11.8736
87.28	13.0755
87.5	8.54259
87.72	1.11262
87.94	0.51328
88.16	9.85054
88.38	25.2472
88.6	11.5329
88.82	10.2645
89.04	11.3863
89.26	13.6148
89.48	0.060177
89.7	6.89649
89.92	1.50754
