Measurement: Powder, Xray Data XY Processed
Mineral: Descloizite
Rruff sample: R050037
Ideal chemistry: Pb^2+^Zn^2+^V^5+^O_4_(OH)
Locality: Berg Aukas mine, Namibia
Source: Eugene Schlepp
Description: Group of brown thin tabular single crystals
Diffraction sample description: Powder
Measured chemistry: Pb_1.00_(Zn_0.98_Cu_0.02_)_Σ=1_((V_0.98_As_0.02_)_Σ=1_O_4_)(OH) ; OH estimated by difference and stoichiometry
Cell parameters: a: 7.5955(2) b: 6.0696(3) c: 9.4243(2) alpha: 90. beta: 90. gamma: 90. volume: 434.48(2) crystal system: orthorhombic
x	intensity
5	0
5.22	5.134
5.44	5.573
5.66	1.352
5.88	3.035
6.1	6.947
6.32	5.751
6.54	2.716
6.76	0.729
6.98	10.797
7.2	8.388
7.42	2.669
7.64	10.825
7.86	6.284
8.08	7.783
8.3	5.206
8.52	2.663
8.74	2.983
8.96	12.279
9.18	3.684
9.4	2.81
9.62	6.541
9.84	3.65
10.06	10.537
10.28	3.617
10.5	9.528
10.72	3.293
10.94	1.929
11.16	12.142
11.38	9.115
11.6	9.869
11.82	0.866
12.04	4.971
12.26	6.083
12.48	12.351
12.7	5.122
12.92	1.466
13.14	8.601
13.36	5.915
13.58	8.817
13.8	5.741
14.02	8.821
14.24	2.867
14.46	6.783
14.68	5.35
14.9	3.734
15.12	7.714
15.34	11.595
15.56	2.665
15.78	5.481
16	4.396
16.22	2.283
16.44	2.114
16.66	5.947
16.88	1.769
17.1	6.889
17.32	75.573
17.54	12.251
17.76	18.006
17.98	5.731
18.2	2.706
18.42	5.746
18.64	9.774
18.86	123.007
19.08	7.453
19.3	2.617
19.52	7.394
19.74	4.083
19.96	0.888
20.18	2.625
20.4	1.384
20.62	7.301
20.84	1.213
21.06	119.115
21.28	2.158
21.5	3.265
21.72	10.369
21.94	6.29
22.16	36.838
22.38	11.911
22.6	11.713
22.82	3.086
23.04	3.163
23.26	2.882
23.48	14.116
23.7	7.471
23.92	1.338
24.14	1.254
24.36	7.231
24.58	4.812
24.8	7.022
25.02	19.989
25.24	24.065
25.46	16.988
25.68	4.799
25.9	0.644
26.12	1.306
26.34	7.002
26.56	6.665
26.78	44.379
27	1.258
27.22	6.372
27.44	7.89
27.66	73.613
27.88	54.237
28.1	5.539
28.32	7.135
28.54	6.057
28.76	3.107
28.98	10.425
29.2	7.24
29.42	44.011
29.64	9.851
29.86	5.61
30.08	3.304
30.3	23.505
30.52	9.224
30.74	75.556
30.96	61.913
31.18	7.479
31.4	1.274
31.62	1.61
31.84	6.637
32.06	7.533
32.28	0.664
32.5	4.935
32.72	3.352
32.94	3.678
33.16	88.653
33.38	25.04
33.6	14.321
33.82	186.269
34.04	13.987
34.26	593.011
34.48	24.697
34.7	8.309
34.92	8.22
35.14	24.999
35.36	11.711
35.58	3.309
35.8	2.375
36.02	4.98
36.24	0.223
36.46	6.241
36.68	7.864
36.9	16.59
37.12	10.588
37.34	15.593
37.56	0.292
37.78	12.379
38	40.059
38.22	7.332
38.44	2.984
38.66	7.746
38.88	10.03
39.1	19.498
39.32	119.343
39.54	6.695
39.76	15.072
39.98	14.128
40.2	55.471
40.42	125.26
40.64	14.829
40.86	2.335
41.08	3.924
41.3	6.798
41.52	2.099
41.74	9.299
41.96	3.432
42.18	3.003
42.4	6.958
42.62	6.553
42.84	34.245
43.06	30.185
43.28	49.213
43.5	8.087
43.72	4.957
43.94	4.321
44.16	1.45
44.38	5.62
44.6	3.673
44.82	4.747
45.04	6.807
45.26	7.958
45.48	0.816
45.7	19.798
45.92	34.781
46.14	18.61
46.36	5.109
46.58	3.732
46.8	3.492
47.02	2.463
47.24	1.243
47.46	11.951
47.68	18.451
47.9	43.224
48.12	10.61
48.34	4.367
48.56	82.494
48.78	8.465
49	14.034
49.22	10.963
49.44	7.414
49.66	2.007
49.88	5.625
50.1	6.199
50.32	9.676
50.54	31.124
50.76	62.337
50.98	2.759
51.2	36.422
51.42	19.635
51.64	3.509
51.86	21.959
52.08	27.34
52.3	27.18
52.52	6.988
52.74	4.047
52.96	4.753
53.18	10.109
53.4	1.486
53.62	8.687
53.84	10.546
54.06	0.164
54.28	13.544
54.5	13.43
54.72	4.94
54.94	22.578
55.16	12.417
55.38	81.539
55.6	189.864
55.82	20.112
56.04	6.465
56.26	5.772
56.48	6.202
56.7	2.657
56.92	3.562
57.14	22.515
57.36	49.914
57.58	5.824
57.8	1.619
58.02	2.654
58.24	2.715
58.46	5.83
58.68	17.757
58.9	69.885
59.12	37.975
59.34	3.94
59.56	8.327
59.78	3.017
60	0.745
60.22	6.509
60.44	0.277
60.66	8.999
60.88	10.637
61.1	20.537
61.32	35.417
61.54	8.787
61.76	12.995
61.98	15.965
62.2	5.993
62.42	4.053
62.64	5.377
62.86	19.431
63.08	3.603
63.3	4.819
63.52	13.076
63.74	3.224
63.96	6.922
64.18	4.783
64.4	4.013
64.62	11.144
64.84	2.229
65.06	0.008
65.28	9.977
65.5	1.894
65.72	17.065
65.94	9.722
66.16	74.28
66.38	50.646
66.6	0.641
66.82	3.176
67.04	14.052
67.26	5.955
67.48	0.846
67.7	5.963
67.92	33.572
68.14	53.263
68.36	11.209
68.58	14.192
68.8	12.994
69.02	3.785
69.24	14.718
69.46	14.695
69.68	4.708
69.9	30.263
70.12	16.822
70.34	13.496
70.56	41.751
70.78	23.056
71	7.338
71.22	1.645
71.44	8.871
71.66	8.343
71.88	15.817
72.1	16.661
72.32	16.408
72.54	17.98
72.76	5.922
72.98	12.213
73.2	0.792
73.42	10.274
73.64	9.205
73.86	4.058
74.08	1.873
74.3	2.59
74.52	0.689
74.74	4.478
74.96	0.151
75.18	5.666
75.4	4.302
75.62	9.199
75.84	10.936
76.06	16.852
76.28	7.946
76.5	11.368
76.72	6.786
76.94	19.02
77.16	10.442
77.38	1.729
77.6	1.068
77.82	5.013
78.04	1.958
78.26	1.981
78.48	5.954
78.7	0.85
78.92	11.231
79.14	11.682
79.36	7.459
79.58	15.396
79.8	9.376
80.02	11.207
80.24	9.105
80.46	5.985
80.68	11.802
80.9	3.378
81.12	73.582
81.34	58.368
81.56	21.305
81.78	25.644
82	9.357
82.22	1.898
82.44	4.115
82.66	12.46
82.88	7.765
83.1	11.984
83.32	11.2
83.54	24.799
83.76	9.402
83.98	9.701
84.2	26.909
84.42	9.916
84.64	5.989
84.86	3.178
85.08	2.039
85.3	2.311
85.52	9.472
85.74	12.118
85.96	16.54
86.18	6.041
86.4	11.703
86.62	34.732
86.84	17.825
87.06	21.024
87.28	5.963
87.5	10.022
87.72	0.642
87.94	0.413
88.16	2.816
88.38	11.241
88.6	11.6
88.82	2.692
89.04	10.38
89.26	12.704
89.48	6.932
89.7	7.873
89.92	4.259
