Measurement: Powder, Xray Data XY Processed
Mineral: Diaboleite
Rruff sample: R050372
Ideal chemistry: Cu^2+^Pb^2+^_2_Cl_2_(OH)_4_
Locality: Collins Vein, Mammoth mine, Tiger, Arizona
Source: Eugene Schlepp
Description: Blue massive fragment
Diffraction sample description: Powder
Measured chemistry: (Cu_0.91_Pb_0.09_)_Î£=1_Pb_2.00_Cl_2.00_(OH)_4_
Cell parameters: a: 5.8698(1) b: 5.8698(1) c: 5.4952(2) alpha: 90. beta: 90. gamma: 90. volume: 189.342(9) crystal system: tetragonal
x	intensity
5	0
5.22	4.53261
5.44	6.33628
5.66	10.7491
5.88	0.472229
6.1	3.32464
6.32	5.34481
6.54	1.0415
6.76	3.08001
6.98	2.12578
7.2	3.14619
7.42	5.47544
7.64	4.5833
7.86	8.68794
8.08	4.80105
8.3	5.17587
8.52	3.6119
8.74	4.74407
8.96	14.8666
9.18	1.13364
9.4	6.92053
9.62	3.16114
9.84	13.0589
10.06	8.07016
10.28	6.08073
10.5	11.1819
10.72	6.95225
10.94	5.83981
11.16	10.8279
11.38	0.707235
11.6	5.71908
11.82	0.708603
12.04	4.88084
12.26	10.919
12.48	5.08947
12.7	3.02111
12.92	1.01044
13.14	2.90775
13.36	0.857845
13.58	2.67972
13.8	6.66744
14.02	0.65163
14.24	7.10573
14.46	6.31807
14.68	2.95216
14.9	5.41631
15.12	36.0436
15.34	0.310875
15.56	22.1403
15.78	3.30033
16	12.3564
16.22	389.196
16.44	15.3462
16.66	0.451783
16.88	2.88989
17.1	5.20509
17.32	5.46174
17.54	1.19368
17.76	0.271062
17.98	8.65223
18.2	11.661
18.42	7.96048
18.64	4.19441
18.86	5.71314
19.08	9.98423
19.3	8.11642
19.52	0.663356
19.74	5.33506
19.96	13.127
20.18	5.7368
20.4	7.36632
20.62	5.05051
20.84	1.47634
21.06	11.0287
21.28	8.70299
21.5	132.482
21.72	10.3931
21.94	12.4618
22.16	2.69027
22.38	13.8026
22.6	8.09696
22.82	11.2494
23.04	4.64895
23.26	1.77368
23.48	10.9151
23.7	2.92799
23.92	8.93002
24.14	1.04187
24.36	3.54176
24.58	4.29036
24.8	4.06265
25.02	8.93361
25.24	4.74716
25.46	4.18055
25.68	3.83587
25.9	14.4396
26.12	1.88618
26.34	7.60613
26.56	0.282701
26.78	56.0495
27	427.038
27.22	38.5437
27.44	17.5119
27.66	18.5937
27.88	2.8353
28.1	6.28378
28.32	5.84798
28.54	2.12473
28.76	7.2581
28.98	7.57787
29.2	2.58603
29.42	1.42845
29.64	2.13124
29.86	12.899
30.08	6.01727
30.3	11.1034
30.52	211.837
30.74	11.071
30.96	6.03637
31.18	15.2588
31.4	4.23558
31.62	5.36439
31.84	20.8198
32.06	4.88372
32.28	4.92677
32.5	5.07133
32.72	16.9677
32.94	3.12719
33.16	11.6433
33.38	5.4201
33.6	5.07009
33.82	2.54653
34.04	11.2209
34.26	13.7329
34.48	20.5894
34.7	174.449
34.92	29.1527
35.14	0.052163
35.36	2.09786
35.58	8.87517
35.8	6.23176
36.02	15.4855
36.24	11.013
36.46	9.50276
36.68	3.00572
36.9	2.06657
37.12	4.12624
37.34	2.81825
37.56	5.17559
37.78	5.74383
38	7.88764
38.22	5.4954
38.44	13.2211
38.66	3.71892
38.88	10.1124
39.1	19.9249
39.32	164.5
39.54	61.3124
39.76	15.4719
39.98	0.467213
40.2	5.14164
40.42	7.67779
40.64	9.02621
40.86	7.44653
41.08	8.64208
41.3	2.89502
41.52	5.91659
41.74	0.299755
41.96	3.61044
42.18	5.31342
42.4	1.08991
42.62	12.4278
42.84	3.11441
43.06	0.735814
43.28	4.40591
43.5	30.2881
43.72	66.1577
43.94	22.8606
44.16	6.40337
44.38	3.252
44.6	1.55402
44.82	4.94856
45.04	21.1092
45.26	73.1964
45.48	11.0755
45.7	6.91685
45.92	1.03922
46.14	7.88785
46.36	2.60636
46.58	15.8216
46.8	62.9657
47.02	25.7005
47.24	12.4891
47.46	8.34945
47.68	6.24089
47.9	2.03365
48.12	1.83656
48.34	6.729
48.56	3.07795
48.78	1.76356
49	9.73355
49.22	27.7638
49.44	9.90797
49.66	5.84624
49.88	25.9849
50.1	5.43816
50.32	1.62878
50.54	7.73607
50.76	1.77511
50.98	1.08972
51.2	5.03706
51.42	11.88
51.64	5.16589
51.86	38.1085
52.08	75.3003
52.3	15.5181
52.52	13.4905
52.74	6.70824
52.96	2.79036
53.18	7.35868
53.4	6.33834
53.62	6.26209
53.84	5.20433
54.06	17.7779
54.28	0.508333
54.5	3.13697
54.72	18.7426
54.94	42.0162
55.16	8.53582
55.38	8.70247
55.6	12.3534
55.82	7.67131
56.04	7.89482
56.26	3.31818
56.48	11.7815
56.7	7.91696
56.92	2.12581
57.14	7.18664
57.36	12.3193
57.58	1.84823
57.8	8.28481
58.02	3.85483
58.24	13.4451
58.46	3.93767
58.68	9.3063
58.9	3.37003
59.12	6.12394
59.34	13.6819
59.56	49.4089
59.78	17.6898
60	28.6849
60.22	78.1973
60.44	28.7403
60.66	7.44141
60.88	5.98393
61.1	11.6285
61.32	6.17289
61.54	7.61289
61.76	11.0424
61.98	6.41268
62.2	3.39988
62.42	1.40692
62.64	6.41286
62.86	5.94866
63.08	12.6696
63.3	12.6936
63.52	18.2889
63.74	4.37899
63.96	8.85636
64.18	2.97922
64.4	8.04017
64.62	10.0901
64.84	5.15622
65.06	3.0481
65.28	14.3129
65.5	8.61767
65.72	8.42184
65.94	22.3473
66.16	11.2714
66.38	12.7666
66.6	2.61815
66.82	7.04132
67.04	12.8861
67.26	5.76511
67.48	0.460845
67.7	17.4316
67.92	11.3862
68.14	12.0305
68.36	34.2315
68.58	23.4149
68.8	11.5058
69.02	10.8083
69.24	3.05246
69.46	2.20311
69.68	8.39006
69.9	10.3415
70.12	15.611
70.34	17.9641
70.56	10.488
70.78	0.840073
71	4.4171
71.22	7.06886
71.44	0.516871
71.66	13.0269
71.88	18.5831
72.1	11.047
72.32	7.96577
72.54	26.8053
72.76	11.825
72.98	11.7235
73.2	8.80844
73.42	3.027
73.64	0.602997
73.86	11.9235
74.08	5.47925
74.3	33.476
74.52	25.9684
74.74	15.7655
74.96	3.83442
75.18	2.29705
75.4	0.144536
75.62	2.89506
75.84	8.86551
76.06	6.60358
76.28	17.4441
76.5	15.1471
76.72	3.67068
76.94	5.79583
77.16	19.277
77.38	21.1994
77.6	3.57679
77.82	3.95218
78.04	1.175
78.26	12.423
78.48	8.71367
78.7	10.5804
78.92	8.16124
79.14	1.19591
79.36	10.2631
79.58	7.14373
79.8	1.36221
80.02	6.03251
80.24	10.73
80.46	3.62365
80.68	2.65961
80.9	5.55896
81.12	8.76429
81.34	9.90787
81.56	13.0663
81.78	14.8882
82	12.1576
82.22	1.30523
82.44	3.75575
82.66	0.779761
82.88	5.11522
83.1	5.91863
83.32	3.05033
83.54	1.61028
83.76	3.15406
83.98	4.7656
84.2	14.678
84.42	14.3793
84.64	25.826
84.86	15.6812
85.08	6.52615
85.3	10.0643
85.52	4.95111
85.74	0.762247
85.96	2.12987
86.18	11.3598
86.4	16.6158
86.62	21.2993
86.84	0.254646
87.06	1.21397
87.28	5.19513
87.5	3.24583
87.72	1.29775
87.94	5.38839
88.16	6.50451
88.38	3.15901
88.6	21.6773
88.82	11.632
89.04	16.8071
89.26	13.1178
89.48	8.73163
89.7	10.873
89.92	1.43244
