Measurement: Powder, Xray Data XY Processed
Mineral: Diaboleite
Rruff sample: R050270
Ideal chemistry: Cu^2+^Pb^2+^_2_Cl_2_(OH)_4_
Locality: Tiger, Pinal County, Arizona, USA
Source: Marcus Origlieri
Description: Blue irregular crystalline
Diffraction sample description: Powder
Measured chemistry: (Cu_0.97_Pb_0.03_)_Î£=1_Pb_2.00_Cl_2.00_(OH)_4_
Cell parameters: a: 5.8675(2) b: 5.8675(2) c: 5.4927(4) alpha: 90 beta: 90 gamma: 90 volume: 189.10(2) crystal system: tetragonal
x	intensity
5	0
5.22	11.739
5.44	10.4691
5.66	4.45908
5.88	6.76943
6.1	15.4243
6.32	12.8193
6.54	5.95662
6.76	4.31078
6.98	1.7279
7.2	10.9842
7.42	7.28991
7.64	2.59312
7.86	12.3415
8.08	5.03489
8.3	3.93244
8.52	17.7773
8.74	13.6078
8.96	8.71476
9.18	14.4629
9.4	0.883542
9.62	5.04622
9.84	3.86405
10.06	5.76446
10.28	3.10596
10.5	5.59573
10.72	10.4816
10.94	4.82656
11.16	1.05127
11.38	5.10805
11.6	7.3133
11.82	9.67102
12.04	11.7473
12.26	14.2205
12.48	13.2157
12.7	6.32421
12.92	3.34077
13.14	2.34505
13.36	0.263841
13.58	10.2626
13.8	3.98015
14.02	11.3836
14.24	7.54221
14.46	1.73116
14.68	8.53134
14.9	1.41665
15.12	42.4722
15.34	3.18033
15.56	14.156
15.78	12.4431
16	53.6701
16.22	265.244
16.44	27.4774
16.66	10.3155
16.88	0.386093
17.1	7.6987
17.32	16.4824
17.54	6.55405
17.76	8.50901
17.98	1.51127
18.2	4.13841
18.42	14.7178
18.64	1.44268
18.86	6.22223
19.08	13.154
19.3	14.3261
19.52	14.0964
19.74	9.93296
19.96	11.3762
20.18	1.16915
20.4	4.13051
20.62	3.66287
20.84	10.22
21.06	15.5606
21.28	34.5532
21.5	130.351
21.72	3.47371
21.94	13.1102
22.16	32.1474
22.38	7.39136
22.6	5.91033
22.82	0.797596
23.04	4.19617
23.26	13.458
23.48	12.1258
23.7	7.27601
23.92	0.942626
24.14	8.79735
24.36	12.9165
24.58	8.46066
24.8	8.37668
25.02	16.6918
25.24	7.25309
25.46	6.18269
25.68	17.1436
25.9	8.67704
26.12	0.613956
26.34	5.71637
26.56	7.07208
26.78	121.422
27	500.291
27.22	56.2101
27.44	32.7688
27.66	15.4723
27.88	5.14789
28.1	5.153
28.32	1.90467
28.54	0.129536
28.76	3.52584
28.98	5.10724
29.2	10.369
29.42	6.6106
29.64	15.3766
29.86	20.4932
30.08	20.5081
30.3	55.6924
30.52	232.002
30.74	28.141
30.96	16.0304
31.18	2.85212
31.4	3.94766
31.62	2.09617
31.84	4.58706
32.06	7.6357
32.28	1.11491
32.5	10.3966
32.72	17.4203
32.94	3.70344
33.16	11.3502
33.38	1.54381
33.6	7.86381
33.82	13.4247
34.04	11.0241
34.26	8.67108
34.48	37.6301
34.7	208.059
34.92	19.6217
35.14	2.21546
35.36	10.6238
35.58	4.8191
35.8	14.037
36.02	11.6414
36.24	7.48374
36.46	0.946743
36.68	12.6777
36.9	2.7394
37.12	3.61775
37.34	9.57721
37.56	1.73761
37.78	6.95784
38	12.5352
38.22	5.08283
38.44	11.2927
38.66	8.33112
38.88	9.1561
39.1	15.7391
39.32	275.543
39.54	93.6808
39.76	13.6708
39.98	7.87334
40.2	4.01547
40.42	13.3461
40.64	6.17137
40.86	1.92349
41.08	6.88177
41.3	3.71183
41.52	12.1605
41.74	10.0482
41.96	13.2656
42.18	4.10431
42.4	9.85064
42.62	5.21451
42.84	8.58834
43.06	2.56923
43.28	22.9788
43.5	63.9186
43.72	104.409
43.94	16.9272
44.16	7.62293
44.38	2.11456
44.6	1.5999
44.82	8.74162
45.04	16.4615
45.26	80.208
45.48	21.6974
45.7	11.4313
45.92	6.09207
46.14	6.96565
46.36	2.78162
46.58	18.6886
46.8	78.0119
47.02	32.3972
47.24	11.553
47.46	3.14383
47.68	9.38547
47.9	6.44389
48.12	2.485
48.34	4.42732
48.56	6.49035
48.78	7.92256
49	32.2281
49.22	47.7682
49.44	11.7271
49.66	20.0703
49.88	30.1004
50.1	3.59287
50.32	4.74863
50.54	12.8612
50.76	0.885803
50.98	5.89154
51.2	10.8488
51.42	9.78819
51.64	10.5907
51.86	67.3804
52.08	120.832
52.3	40.6359
52.52	11.9398
52.74	4.99779
52.96	4.63812
53.18	7.72059
53.4	11.856
53.62	4.89624
53.84	6.89274
54.06	8.46781
54.28	0.684696
54.5	13.2949
54.72	24.041
54.94	32.5721
55.16	9.93898
55.38	21.061
55.6	12.3446
55.82	10.1793
56.04	0.898434
56.26	4.45861
56.48	2.25479
56.7	5.70059
56.92	11.4859
57.14	11.6842
57.36	8.18381
57.58	5.93639
57.8	7.61247
58.02	4.19099
58.24	12.0084
58.46	1.98328
58.68	11.0335
58.9	2.75345
59.12	11.7483
59.34	38.7343
59.56	47.9577
59.78	32.093
60	62.912
60.22	84.6552
60.44	48.0679
60.66	6.9717
60.88	3.92283
61.1	1.8903
61.32	2.94319
61.54	5.00126
61.76	5.91948
61.98	1.36701
62.2	16.1216
62.42	8.40378
62.64	5.74496
62.86	1.41315
63.08	1.35199
63.3	23.454
63.52	19.6224
63.74	7.87187
63.96	10.7198
64.18	7.82854
64.4	5.96535
64.62	7.03703
64.84	9.078
65.06	8.32829
65.28	5.3002
65.5	6.35683
65.72	12.368
65.94	12.2372
66.16	7.70405
66.38	0.70203
66.6	6.61975
66.82	9.3881
67.04	7.36669
67.26	2.37486
67.48	6.13112
67.7	8.16152
67.92	6.17895
68.14	37.3387
68.36	32.3865
68.58	24.2787
68.8	5.21494
69.02	14.0967
69.24	2.97871
69.46	9.88203
69.68	7.32944
69.9	3.1784
70.12	25.8617
70.34	13.8487
70.56	12.3517
70.78	7.77315
71	1.72551
71.22	4.77195
71.44	1.63767
71.66	12.0396
71.88	17.6896
72.1	30.0442
72.32	12.8671
72.54	23.3445
72.76	16.4475
72.98	9.55745
73.2	9.86688
73.42	3.28171
73.64	1.78236
73.86	5.57133
74.08	11.0977
74.3	27.9823
74.52	23.4693
74.74	12.2915
74.96	6.96994
75.18	10.7028
75.4	7.58012
75.62	2.42916
75.84	10.1799
76.06	15.8313
76.28	2.20847
76.5	13.1765
76.72	19.5357
76.94	3.14118
77.16	13.535
77.38	18.0812
77.6	5.60893
77.82	1.02022
78.04	7.53252
78.26	2.0932
78.48	8.88404
78.7	7.47895
78.92	5.12497
79.14	5.52978
79.36	10.5114
79.58	8.69137
79.8	0.688713
80.02	2.39422
80.24	7.35062
80.46	4.37469
80.68	9.27023
80.9	2.98756
81.12	16.8886
81.34	7.4272
81.56	9.61605
81.78	8.49807
82	4.49298
82.22	9.6208
82.44	14.0657
82.66	10.6322
82.88	10.3659
83.1	4.18663
83.32	14.9624
83.54	3.38552
83.76	0.674953
83.98	13.442
84.2	8.9035
84.42	22.5248
84.64	24.8288
84.86	20.5156
85.08	7.69505
85.3	1.63145
85.52	1.34023
85.74	10.7893
85.96	3.14254
86.18	11.9452
86.4	20.792
86.62	16.181
86.84	11.4918
87.06	0.229822
87.28	4.02958
87.5	3.26693
87.72	2.57545
87.94	0.468632
88.16	11.5703
88.38	3.84949
88.6	14.9804
88.82	12.8508
89.04	16.651
89.26	5.66449
89.48	13.0551
89.7	9.08152
89.92	3.53676
