Measurement: Powder, Xray Data XY Processed
Mineral: Diaoyudaoite
Rruff sample: R050182
Ideal chemistry: NaAl_11_O_17_
Locality: Port Elizabeth, Essex County, New Jersey, USA
Source: Marcus Origlieri
Description: Colorless crystal fragments
Diffraction sample description: Single crystal, powder profile is calculated
Measured chemistry: (Na_1.21_Ca_0.06_)(Al_0.99_[box]_0.01_)_11_O_17_
Cell parameters: a: 5.5957(8) b: 5.5957(8) c: 22.562(4) alpha: 90 beta: 90 gamma: 120 volume: 611.8(1) crystal system: hexagonal
x	intensity
5	0
5.22	0
5.44	0
5.66	0
5.88	0
6.1	0
6.32	0
6.54	0
6.76	0
6.98	0
7.2	0
7.42	0
7.64	0
7.86	92.814
8.08	0
8.3	0
8.52	0
8.74	0
8.96	0
9.18	0
9.4	0
9.62	0
9.84	0
10.06	0
10.28	0
10.5	0
10.72	0
10.94	0
11.16	0
11.38	0
11.6	0
11.82	0
12.04	0
12.26	0
12.48	0
12.7	0
12.92	0
13.14	0
13.36	0
13.58	0
13.8	0
14.02	0
14.24	0
14.46	0
14.68	0
14.9	0
15.12	0
15.34	0
15.56	0
15.78	8.44
16	0
16.22	0
16.44	0
16.66	0
16.88	0
17.1	0
17.32	0
17.54	0
17.76	0
17.98	0
18.2	0.005
18.42	0.005
18.64	0.029
18.86	0.001
19.08	0
19.3	0
19.52	0
19.74	0
19.96	6.29
20.18	0
20.4	0
20.62	0
20.84	0
21.06	0
21.28	0
21.5	0
21.72	0.015
21.94	0.023
22.16	0
22.38	0
22.6	0
22.82	0
23.04	0
23.26	0
23.48	0
23.7	0.049
23.92	0
24.14	0.121
24.36	0.007
24.58	0
24.8	0
25.02	0
25.24	0
25.46	0
25.68	0
25.9	0
26.12	0
26.34	0
26.56	0
26.78	0
27	0.022
27.22	0
27.44	0
27.66	0
27.88	0
28.1	0
28.32	0
28.54	0
28.76	0
28.98	0
29.2	0
29.42	0
29.64	0
29.86	0
30.08	0.165
30.3	0
30.52	0
30.74	0
30.96	0
31.18	0
31.4	0
31.62	0
31.84	0.591
32.06	2.344
32.28	0
32.5	0
32.72	0
32.94	0.026
33.16	0
33.38	12.714
33.6	0.005
33.82	0
34.04	0
34.26	0
34.48	0
34.7	0
34.92	0
35.14	0
35.36	0
35.58	0
35.8	10.522
36.02	0.002
36.24	0
36.46	0
36.68	0
36.9	0.935
37.12	0.458
37.34	2.028
37.56	0
37.78	0
38	0.895
38.22	0
38.44	0
38.66	0
38.88	0
39.1	0.589
39.32	0
39.54	0
39.76	0
39.98	0.638
40.2	1.999
40.42	0.113
40.64	0.563
40.86	0
41.08	0
41.3	0
41.52	0
41.74	0
41.96	0
42.18	0.001
42.4	2.464
42.62	0
42.84	0
43.06	0
43.28	0
43.5	0
43.72	0
43.94	0
44.16	0
44.38	0.729
44.6	2.94
44.82	0
45.04	0
45.26	0
45.48	0
45.7	0.011
45.92	0
46.14	0
46.36	0
46.58	0
46.8	0.048
47.02	1.826
47.24	0
47.46	0
47.68	0
47.9	0
48.12	0
48.34	0
48.56	0.01
48.78	0
49	0
49.22	0
49.44	0
49.66	0.296
49.88	0.068
50.1	0.007
50.32	0.002
50.54	0.249
50.76	0
50.98	0
51.2	0.003
51.42	0.085
51.64	0
51.86	0
52.08	0.442
52.3	0.027
52.52	0.578
52.74	0.017
52.96	0
53.18	0
53.4	0
53.62	0
53.84	0
54.06	0
54.28	0
54.5	0
54.72	0
54.94	0
55.16	0
55.38	0
55.6	0.133
55.82	0.47
56.04	0.001
56.26	0.018
56.48	0.147
56.7	0
56.92	0.434
57.14	0.38
57.36	0.298
57.58	0
57.8	0.363
58.02	2.055
58.24	0
58.46	0
58.68	0
58.9	0.029
59.12	0.663
59.34	0.165
59.56	0.208
59.78	0.001
60	0
60.22	0.393
60.44	0.072
60.66	0.047
60.88	0
61.1	0
61.32	0
61.54	0
61.76	0
61.98	0
62.2	0
62.42	0.003
62.64	0.087
62.86	0.095
63.08	0.005
63.3	0
63.52	0
63.74	0
63.96	0
64.18	0
64.4	0
64.62	0
64.84	0
65.06	0.004
65.28	0
65.5	0
65.72	0.079
65.94	0.003
66.16	0.118
66.38	0.478
66.6	0.001
66.82	8.917
67.04	2.882
67.26	0.016
67.48	0.068
67.7	0.004
67.92	0
68.14	0
68.36	0
68.58	0
68.8	0
69.02	0.01
69.24	0.035
69.46	0.018
69.68	0.008
69.9	0.01
70.12	2.589
70.34	1.824
70.56	0.051
70.78	0.01
71	0
71.22	0.056
71.44	0.022
71.66	0
71.88	0.098
72.1	0.041
72.32	0.003
72.54	0
72.76	0
72.98	0
73.2	0
73.42	0
73.64	0
73.86	0
74.08	0.058
74.3	0.034
74.52	0
74.74	0
74.96	0.02
75.18	0.01
75.4	0.071
75.62	0.059
75.84	0.26
76.06	0.129
76.28	0.007
76.5	0
76.72	0.38
76.94	0.146
77.16	0.001
77.38	0
77.6	0
77.82	0
78.04	0.046
78.26	0.037
78.48	0.001
78.7	0
78.92	0.233
79.14	0.425
79.36	0.187
79.58	0.008
79.8	0.009
80.02	0
80.24	0.073
80.46	0.071
80.68	0
80.9	0
81.12	0.065
81.34	0.017
81.56	0
81.78	0
82	0
82.22	0.002
82.44	0.023
82.66	0.05
82.88	0.003
83.1	0.051
83.32	0.027
83.54	0
83.76	0.262
83.98	0.178
84.2	0.026
84.42	0
84.64	0
84.86	0.039
85.08	0.063
85.3	0.006
85.52	0.096
85.74	0.005
85.96	0.002
86.18	0.003
86.4	0.009
86.62	0.043
86.84	0
87.06	0.001
87.28	0.018
87.5	0.012
87.72	0.271
87.94	0.132
88.16	0.005
88.38	0
88.6	0.001
88.82	0.001
89.04	0
89.26	0.047
89.48	0.079
89.7	0.002
89.92	0.028
