Measurement: Powder, Xray Data XY Processed
Mineral: Dickite
Rruff sample: R060298
Ideal chemistry: Al_2_Si_2_O_5_(OH)_4_
Locality: Piast mine, Nowa Ruda, Sudety Mountains, Poland
Source: Herb Obodda
Description: Greenish-blue massive
Diffraction sample description: Powder
Measured chemistry: Al_2.00_Si_2.00_O_5_(OH)_4_ ; OH estimated by difference and charge balance
Cell parameters: a: 5.1520(9) b: 8.941(2) c: 14.7355(9) alpha: 90 beta: 103.54(1) gamma: 90 volume: 659.9(1) crystal system: monoclinic
x	intensity
5	0
5.22	13.313
5.44	23.127
5.66	2.872
5.88	6.668
6.1	9.064
6.32	8.846
6.54	9.271
6.76	3.772
6.98	1.081
7.2	1.596
7.42	3.225
7.64	1.5
7.86	2.834
8.08	7.437
8.3	7.259
8.52	3.52
8.74	5.921
8.96	16.246
9.18	7.094
9.4	3.371
9.62	2.481
9.84	12.995
10.06	9.339
10.28	16.92
10.5	4.833
10.72	9.107
10.94	2.194
11.16	63.457
11.38	1.779
11.6	9.937
11.82	11.502
12.04	48.206
12.26	420.576
12.48	301.376
12.7	22.396
12.92	26.504
13.14	16.748
13.36	14.868
13.58	20.248
13.8	8.768
14.02	12.245
14.24	22.938
14.46	8.486
14.68	0.154
14.9	17.23
15.12	8.309
15.34	7.717
15.56	4.593
15.78	5.864
16	12.383
16.22	9.737
16.44	9.11
16.66	7.784
16.88	12.385
17.1	4.027
17.32	13.693
17.54	1.796
17.76	5.2
17.98	13.026
18.2	6.35
18.42	2.589
18.64	7.261
18.86	11.856
19.08	10.17
19.3	2.557
19.52	4.573
19.74	11.918
19.96	29.4
20.18	32.944
20.4	46.95
20.62	1.448
20.84	42.785
21.06	4.26
21.28	4.732
21.5	40.913
21.72	16.822
21.94	11.245
22.16	4.652
22.38	11.723
22.6	11.999
22.82	12.397
23.04	10.413
23.26	10.259
23.48	96.876
23.7	12.301
23.92	7.655
24.14	6.317
24.36	0.745
24.58	31.324
24.8	452.256
25.02	126.081
25.24	9.612
25.46	0.719
25.68	4.344
25.9	21.666
26.12	20.299
26.34	27.775
26.56	14.376
26.78	26.485
27	5.408
27.22	6.246
27.44	18.756
27.66	7.76
27.88	13.421
28.1	1.107
28.32	23.091
28.54	6.093
28.76	14.689
28.98	15.044
29.2	10.313
29.42	6.874
29.64	1.565
29.86	2.921
30.08	8.69
30.3	11.518
30.52	18.639
30.74	3.147
30.96	6.955
31.18	8.909
31.4	16.851
31.62	1.568
31.84	5.333
32.06	28.337
32.28	13.753
32.5	0.195
32.72	6.886
32.94	5.298
33.16	3.541
33.38	6.974
33.6	19.513
33.82	5.699
34.04	12.954
34.26	2.637
34.48	4.564
34.7	2.436
34.92	10.44
35.14	24.281
35.36	10.47
35.58	38.799
35.8	56.294
36.02	4.098
36.24	5.313
36.46	1.494
36.68	7.653
36.9	8.771
37.12	11.945
37.34	11.697
37.56	15.328
37.78	96.744
38	5.239
38.22	1.803
38.44	1.872
38.66	58.216
38.88	51.029
39.1	32.999
39.32	11.092
39.54	8.726
39.76	7.237
39.98	1.798
40.2	5.007
40.42	21.315
40.64	15.626
40.86	25.004
41.08	12.89
41.3	8.379
41.52	14.437
41.74	12.382
41.96	16.228
42.18	5.594
42.4	8.267
42.62	0.935
42.84	13.378
43.06	25.885
43.28	7.21
43.5	9.601
43.72	4.927
43.94	7.46
44.16	8.145
44.38	8.362
44.6	8.298
44.82	17.501
45.04	15.68
45.26	1.203
45.48	14.545
45.7	0.896
45.92	47.736
46.14	8.093
46.36	15.473
46.58	3.59
46.8	4.917
47.02	18.106
47.24	8.661
47.46	12.164
47.68	4.409
47.9	7.494
48.12	6.561
48.34	3.747
48.56	13.977
48.78	6.536
49	17.504
49.22	4.652
49.44	17.8
49.66	10.765
49.88	5.392
50.1	10.664
50.32	2.133
50.54	7.451
50.76	12.738
50.98	85.842
51.2	16.569
51.42	11.913
51.64	8.471
51.86	11.333
52.08	11.509
52.3	6.637
52.52	0.1
52.74	0.983
52.96	2.244
53.18	21.284
53.4	7.974
53.62	1.885
53.84	6.338
54.06	14.513
54.28	0.311
54.5	8.948
54.72	11.56
54.94	1.281
55.16	2.586
55.38	19.403
55.6	38.585
55.82	35.007
56.04	6.372
56.26	2.735
56.48	11.823
56.7	1.316
56.92	10.925
57.14	7.37
57.36	3.873
57.58	4.844
57.8	3.633
58.02	6.852
58.24	11.712
58.46	8.635
58.68	5.761
58.9	7.238
59.12	7.593
59.34	28.659
59.56	19.667
59.78	1.026
60	7.749
60.22	1.703
60.44	3.778
60.66	12.818
60.88	2.153
61.1	0.656
61.32	5.274
61.54	8.117
61.76	7.926
61.98	3.857
62.2	4.498
62.42	17.5
62.64	5.489
62.86	10.45
63.08	3.444
63.3	8.202
63.52	6.122
63.74	5.6
63.96	5.495
64.18	4.573
64.4	1.852
64.62	9.47
64.84	8.418
65.06	31.431
65.28	1.748
65.5	6.757
65.72	4.81
65.94	4.678
66.16	13.497
66.38	12.542
66.6	2.087
66.82	6.37
67.04	18.969
67.26	11.038
67.48	15.133
67.7	0.811
67.92	12.515
68.14	13.732
68.36	0.134
68.58	10.533
68.8	1.436
69.02	10.206
69.24	6.967
69.46	7.318
69.68	6.251
69.9	6.985
70.12	8.575
70.34	6.1
70.56	3.726
70.78	7.205
71	9.861
71.22	13.698
71.44	33.704
71.66	35.699
71.88	6.781
72.1	11.078
72.32	11.485
72.54	11.05
72.76	0.995
72.98	12.365
73.2	1.713
73.42	17.123
73.64	14.423
73.86	5.532
74.08	13.435
74.3	4.448
74.52	6.153
74.74	2.114
74.96	8.973
75.18	10.346
75.4	7.372
75.62	6.723
75.84	13.597
76.06	8.385
76.28	1.633
76.5	6.462
76.72	6.616
76.94	2.632
77.16	13.956
77.38	11.977
77.6	6.029
77.82	12.004
78.04	11.418
78.26	14.573
78.48	7.465
78.7	0.808
78.92	3.423
79.14	10.435
79.36	10.34
79.58	7.748
79.8	11.686
80.02	0.506
80.24	10.577
80.46	3.567
80.68	7.537
80.9	12.777
81.12	14.05
81.34	13.235
81.56	8.442
81.78	4.623
82	9.814
82.22	6.188
82.44	9.295
82.66	13.302
82.88	4.363
83.1	10.625
83.32	10.877
83.54	11.654
83.76	3.234
83.98	10.965
84.2	3.047
84.42	10.063
84.64	7.836
84.86	9.545
85.08	6.617
85.3	5.824
85.52	5.529
85.74	7.239
85.96	2.38
86.18	9.334
86.4	0.809
86.62	0.994
86.84	9.898
87.06	0.052
87.28	9.12
87.5	3.953
87.72	6.822
87.94	2.9
88.16	6.897
88.38	9.063
88.6	4.298
88.82	13.655
89.04	12.014
89.26	7.353
89.48	3.602
89.7	14.179
89.92	3.463
