Measurement: Powder, Xray Data XY Processed
Mineral: Dickite
Rruff sample: R090054
Ideal chemistry: Al_2_Si_2_O_5_(OH)_4_
Locality: Schuylkill county, Pennsylvania, USA
Source: Mineralogical Museum, Harvard University
Description: Unconsolidated mass of hexagonal platelets associated with minor quartz crystals.
Diffraction sample description: Powder, mixed with quartz
Cell parameters: a: 5.160(2) b: 8.955(1) c: 14.737(2) alpha: 90 beta: 103.47(2) gamma: 90 volume: 662.2(2) crystal system: monoclinic
x	intensity
5	0
5.22	21.8234
5.44	6.97689
5.66	16.4639
5.88	30.1342
6.1	14.7457
6.32	5.96349
6.54	5.33566
6.76	11.8415
6.98	15.3181
7.2	17.143
7.42	7.97955
7.64	9.56614
7.86	18.1339
8.08	24.3827
8.3	5.29296
8.52	3.46945
8.74	6.58456
8.96	13.5039
9.18	3.57504
9.4	13.0367
9.62	5.17056
9.84	6.39637
10.06	13.0328
10.28	16.4673
10.5	2.10127
10.72	3.33772
10.94	5.25331
11.16	127.197
11.38	21.7523
11.6	6.18619
11.82	18.5886
12.04	101.418
12.26	878.035
12.48	3829.09
12.7	123.051
12.92	44.2877
13.14	18.4931
13.36	8.17952
13.58	0.079567
13.8	3.72584
14.02	3.26878
14.24	15.0069
14.46	2.83598
14.68	10.373
14.9	3.7849
15.12	6.82835
15.34	11.3806
15.56	9.77052
15.78	20.1385
16	9.26801
16.22	21.4578
16.44	11.4962
16.66	13.6354
16.88	10.7864
17.1	19.9165
17.32	2.86605
17.54	19.3241
17.76	14.6133
17.98	15.0329
18.2	15.4546
18.42	12.8849
18.64	9.79569
18.86	25.4589
19.08	13.7158
19.3	3.53688
19.52	6.51693
19.74	1.50074
19.96	29.1926
20.18	20.7339
20.4	35.3252
20.62	14.9869
20.84	110.495
21.06	23.371
21.28	3.26074
21.5	16.3162
21.72	27.2574
21.94	11.6388
22.16	11.8171
22.38	27.4558
22.6	10.7946
22.82	6.54481
23.04	2.13627
23.26	2.32101
23.48	50.0473
23.7	17.0599
23.92	7.59966
24.14	28.0327
24.36	24.0001
24.58	58.8143
24.8	1134.7
25.02	1057.07
25.24	38.0091
25.46	20.3377
25.68	3.21984
25.9	21.9149
26.12	10.5356
26.34	5.52659
26.56	65.3289
26.78	277.409
27	13.0068
27.22	1.45266
27.44	5.26886
27.66	12.4345
27.88	11.9831
28.1	12.1921
28.32	17.9361
28.54	14.673
28.76	20.5828
28.98	15.2476
29.2	16.1853
29.42	16.0074
29.64	15.1752
29.86	0.973701
30.08	17.8051
30.3	21.7839
30.52	14.8913
30.74	8.57884
30.96	4.45812
31.18	10.1301
31.4	6.15451
31.62	6.76143
31.84	9.02414
32.06	22.1546
32.28	28.3206
32.5	17.5259
32.72	9.87227
32.94	0.166862
33.16	4.26258
33.38	13.0919
33.6	20.5458
33.82	17.7264
34.04	15.438
34.26	2.29106
34.48	0.986614
34.7	12.8196
34.92	2.89149
35.14	13.6599
35.36	9.24775
35.58	34.1492
35.8	19.3014
36.02	15.5172
36.24	14.1566
36.46	8.83536
36.68	26.5524
36.9	14.3829
37.12	2.34972
37.34	13.6259
37.56	56.245
37.78	280.248
38	18.4294
38.22	2.56445
38.44	1.96409
38.66	33.4963
38.88	52.672
39.1	28.6404
39.32	8.21662
39.54	30.2098
39.76	10.9778
39.98	1.73149
40.2	1.46735
40.42	14.4302
40.64	9.30526
40.86	13.0472
41.08	14.8766
41.3	9.03045
41.52	12.9114
41.74	4.33935
41.96	9.54213
42.18	6.6818
42.4	25.7386
42.62	16.1673
42.84	21.2918
43.06	21.4197
43.28	10.2493
43.5	19.2601
43.72	0.759922
43.94	17.2151
44.16	9.1581
44.38	3.20485
44.6	21.1765
44.82	6.01701
45.04	5.74863
45.26	0.851669
45.48	17.0101
45.7	17.17
45.92	37.2512
46.14	27.6881
46.36	7.07164
46.58	10.7778
46.8	7.02102
47.02	5.02736
47.24	8.00229
47.46	1.71047
47.68	0.625055
47.9	7.49952
48.12	8.66843
48.34	0.321396
48.56	4.15649
48.78	13.6919
49	27.4434
49.22	16.2505
49.44	3.11246
49.66	11.626
49.88	14.0441
50.1	22.663
50.32	33.6397
50.54	0.088099
50.76	12.8076
50.98	201.035
51.2	67.1125
51.42	6.84995
51.64	1.46442
51.86	2.09193
52.08	0.535311
52.3	9.8567
52.52	9.54041
52.74	8.16229
52.96	5.23732
53.18	4.06758
53.4	12.2853
53.62	6.09361
53.84	2.35441
54.06	4.42452
54.28	9.87759
54.5	11.3508
54.72	1.85339
54.94	36.0806
55.16	11.4544
55.38	8.84904
55.6	32.8231
55.82	43.2467
56.04	18.5013
56.26	8.02059
56.48	9.90613
56.7	1.46411
56.92	6.92282
57.14	8.51188
57.36	7.55145
57.58	6.83661
57.8	2.90654
58.02	11.4604
58.24	7.47397
58.46	5.4309
58.68	7.50629
58.9	1.78406
59.12	17.7313
59.34	16.6011
59.56	23.1083
59.78	13.1652
60	41.6798
60.22	14.9699
60.44	7.19208
60.66	10.3401
60.88	13.4125
61.1	8.71079
61.32	2.68015
61.54	7.62543
61.76	6.51993
61.98	4.23822
62.2	5.69408
62.42	16.2387
62.64	7.35907
62.86	8.51985
63.08	6.57187
63.3	14.706
63.52	0.148172
63.74	10.4032
63.96	6.64984
64.18	13.893
64.4	1.14834
64.62	1.29513
64.84	14.0091
65.06	59.99
65.28	53.0348
65.5	11.3095
65.72	11.0376
65.94	0.589456
66.16	5.4917
66.38	4.01655
66.6	9.59541
66.82	0.169455
67.04	0.381256
67.26	10.6001
67.48	9.36826
67.7	8.91372
67.92	9.19473
68.14	18.8845
68.36	25.9814
68.58	14.5322
68.8	9.39822
69.02	5.4846
69.24	12.1602
69.46	2.36362
69.68	8.9476
69.9	4.01235
70.12	9.92555
70.34	5.55837
70.56	5.78017
70.78	4.75911
71	11.2392
71.22	22.7093
71.44	71.442
71.66	56.5825
71.88	24.5609
72.1	9.57461
72.32	10.8572
72.54	7.14678
72.76	4.43908
72.98	0.154655
73.2	0.78503
73.42	2.35647
73.64	7.53137
73.86	1.30458
74.08	10.1923
74.3	3.5766
74.52	7.78904
74.74	7.71565
74.96	12.6825
75.18	2.26407
75.4	7.84281
75.62	18.3575
75.84	9.2123
76.06	11.1627
76.28	10.1812
76.5	3.06725
76.72	2.55521
76.94	5.59985
77.16	2.71158
77.38	9.06334
77.6	7.97726
77.82	5.70998
78.04	1.16617
78.26	3.88429
78.48	8.67774
78.7	12.9704
78.92	12.5418
79.14	2.32432
79.36	6.90669
79.58	1.4218
79.8	1.952
80.02	5.73685
80.24	15.5952
80.46	25.354
80.68	24.5073
80.9	17.1837
81.12	9.79711
81.34	6.25718
81.56	12.0143
81.78	1.42662
82	1.8253
82.22	5.23851
82.44	5.72318
82.66	0.082242
82.88	10.1954
83.1	3.33692
83.32	8.19585
83.54	4.91335
83.76	6.82749
83.98	8.04836
84.2	7.3057
84.42	3.39938
84.64	7.80606
84.86	6.61849
85.08	7.70017
85.3	9.76094
85.52	5.76404
85.74	5.86829
85.96	3.65609
86.18	3.87414
86.4	14.4252
86.62	6.26514
86.84	8.33533
87.06	6.95791
87.28	7.15961
87.5	5.44325
87.72	1.50509
87.94	10.5591
88.16	2.37207
88.38	4.58905
88.6	11.7407
88.82	5.81381
89.04	7.88998
89.26	9.95566
89.48	11.7133
89.7	1.08537
89.92	5.76312
