Measurement: Powder, Xray Data XY Processed
Mineral: Dietrichite
Rruff sample: R070381
Ideal chemistry: Zn^2+^Al_2_(S^6+^O_4_)_4_22H_2_O
Locality: Baia Sprie mine (Felsöbánya mine), Baia Sprie (Felsöbánya), Maramures County, Romania
Source: Michael Scott
Description: Light brown fibrous in tufted aggregates
Diffraction sample description: Powder
Cell parameters: a: 6.1843(3) b: 24.2798(7) c: 21.2341(5) alpha: 90 beta: 100.362(3) gamma: 90 volume: 3136.4(1) crystal system: monoclinic
x	intensity
5	0
5.22	10.9742
5.44	32.4875
5.66	30.4013
5.88	0.97654
6.1	3.99269
6.32	3.34684
6.54	27.3185
6.76	8.18582
6.98	13.5374
7.2	15.645
7.42	10.4655
7.64	9.26503
7.86	5.43154
8.08	3.04272
8.3	10.7848
8.52	30.9672
8.74	14.3072
8.96	16.162
9.18	105.972
9.4	19.1283
9.62	3.19609
9.84	3.15847
10.06	20.7971
10.28	17.3651
10.5	16.7672
10.72	12.44
10.94	21.7635
11.16	192.172
11.38	14.4587
11.6	20.8189
11.82	19.0474
12.04	3.52864
12.26	11.3168
12.48	24.143
12.7	6.42139
12.92	2.05275
13.14	21.5038
13.36	17.0465
13.58	3.04432
13.8	46.66
14.02	13.7877
14.24	25.0553
14.46	24.4099
14.68	292.237
14.9	5.85947
15.12	3.05346
15.34	17.286
15.56	1.86621
15.78	11.848
16	22.4399
16.22	33.5919
16.44	14.0003
16.66	35.7668
16.88	66.3775
17.1	26.0289
17.32	3.97296
17.54	4.31984
17.76	8.53701
17.98	74.2433
18.2	69.0538
18.42	209.42
18.64	42.834
18.86	14.7903
19.08	21.4131
19.3	141.067
19.52	37.8308
19.74	12.1272
19.96	5.7421
20.18	36.3879
20.4	12.0754
20.62	188.732
20.84	14.6648
21.06	1.23819
21.28	59.4411
21.5	10.8842
21.72	29.8865
21.94	3.61674
22.16	5.07965
22.38	23.6897
22.6	22.1735
22.82	10.6496
23.04	2.24012
23.26	0.273106
23.48	40.8523
23.7	9.68383
23.92	28.0715
24.14	29.0971
24.36	27.3641
24.58	20.504
24.8	0.516857
25.02	23.2893
25.24	6.84956
25.46	573.623
25.68	26.7972
25.9	88.5961
26.12	1.65847
26.34	11.1424
26.56	25.7756
26.78	45.3498
27	17.6969
27.22	60.889
27.44	38.8895
27.66	5.74027
27.88	34.7698
28.1	69.0929
28.32	23.7082
28.54	9.21958
28.76	23.5229
28.98	12.3113
29.2	23.1974
29.42	13.4719
29.64	51.7322
29.86	1.60293
30.08	32.0283
30.3	13.4735
30.52	15.002
30.74	6.37268
30.96	44.7706
31.18	12.6767
31.4	9.37609
31.62	52.249
31.84	25.2733
32.06	28.3729
32.28	6.18768
32.5	14.4854
32.72	10.447
32.94	45.5414
33.16	16.0511
33.38	109.352
33.6	12.2702
33.82	0.647385
34.04	3.38728
34.26	16.9902
34.48	43.7264
34.7	14.7098
34.92	16.3741
35.14	81.0007
35.36	25.4521
35.58	28.6119
35.8	7.0079
36.02	11.9901
36.24	14.425
36.46	11.8237
36.68	23.859
36.9	24.6684
37.12	0.181171
37.34	9.28865
37.56	30.1452
37.78	21.4569
38	16.7777
38.22	10.0361
38.44	16.5677
38.66	18.5797
38.88	5.0094
39.1	48.8938
39.32	40.3692
39.54	26.8809
39.76	19.8361
39.98	11.3731
40.2	29.333
40.42	44.3599
40.64	20.433
40.86	6.1155
41.08	17.6894
41.3	12.3214
41.52	7.47414
41.74	12.0207
41.96	19.3179
42.18	17.5445
42.4	16.4178
42.62	29.8721
42.84	2.03891
43.06	6.29092
43.28	8.75898
43.5	21.1935
43.72	7.77685
43.94	31.9845
44.16	21.4674
44.38	14.182
44.6	1.99638
44.82	5.30152
45.04	25.2381
45.26	27.5834
45.48	13.8421
45.7	6.64148
45.92	17.5256
46.14	9.87869
46.36	14.6255
46.58	3.34652
46.8	7.33736
47.02	6.12009
47.24	11.8976
47.46	1.90537
47.68	6.81643
47.9	0.58849
48.12	15.1409
48.34	0.223625
48.56	40.8905
48.78	8.79821
49	5.17354
49.22	1.66033
49.44	17.5873
49.66	10.2971
49.88	19.3177
50.1	0.478378
50.32	7.44519
50.54	7.57307
50.76	18.0357
50.98	5.5339
51.2	17.9659
51.42	16.2892
51.64	19.8302
51.86	12.6892
52.08	15.3174
52.3	8.10016
52.52	16.1003
52.74	24.3026
52.96	8.78983
53.18	14.4267
53.4	5.73603
53.62	16.4225
53.84	7.4486
54.06	11.5459
54.28	16.3093
54.5	15.5708
54.72	4.74181
54.94	16.9981
55.16	24.1074
55.38	8.47915
55.6	10.5959
55.82	1.47448
56.04	29.0816
56.26	6.81063
56.48	1.1044
56.7	0.36842
56.92	5.5985
57.14	13.2835
57.36	11.2816
57.58	6.30462
57.8	12.3281
58.02	7.99953
58.24	19.9974
58.46	6.81775
58.68	9.82114
58.9	12.0691
59.12	12.4777
59.34	8.62606
59.56	3.45127
59.78	20.6569
60	22.9311
60.22	7.07255
60.44	10.6804
60.66	7.58344
60.88	17.9618
61.1	8.7119
61.32	9.70299
61.54	4.87819
61.76	14.9699
61.98	3.64027
62.2	14.5754
62.42	3.76212
62.64	14.0332
62.86	10.2748
63.08	6.8669
63.3	10.6471
63.52	0.940903
63.74	12.2529
63.96	21.2201
64.18	8.3307
64.4	22.5026
64.62	20.7681
64.84	15.7586
65.06	2.0816
65.28	11.0146
65.5	3.63484
65.72	7.42005
65.94	0.315136
66.16	14.163
66.38	9.23809
66.6	19.1976
66.82	3.95359
67.04	10.0136
67.26	9.19772
67.48	2.57752
67.7	11.5698
67.92	12.8728
68.14	10.2828
68.36	11.6455
68.58	1.89034
68.8	1.98186
69.02	0.465139
69.24	5.4796
69.46	17.1876
69.68	15.1855
69.9	17.8142
70.12	1.99582
70.34	13.0076
70.56	12.7851
70.78	15.9763
71	0.942711
71.22	16.321
71.44	16.7773
71.66	0.205505
71.88	12.9442
72.1	8.07525
72.32	13.0945
72.54	5.02649
72.76	13.4909
72.98	3.13764
73.2	8.60134
73.42	1.68262
73.64	8.70502
73.86	3.92453
74.08	14.527
74.3	12.5857
74.52	2.59069
74.74	2.54516
74.96	18.6436
75.18	10.5096
75.4	14.8137
75.62	2.76956
75.84	9.86246
76.06	19.2368
76.28	1.40661
76.5	16.9739
76.72	7.10892
76.94	13.2466
77.16	2.43305
77.38	20.1317
77.6	11.9732
77.82	4.27025
78.04	18.0338
78.26	6.81613
78.48	2.12371
78.7	2.66458
78.92	8.93198
79.14	2.81843
79.36	8.99317
79.58	6.92478
79.8	6.39608
80.02	11.6225
80.24	4.39192
80.46	7.57044
80.68	2.97084
80.9	6.86145
81.12	10.3233
81.34	11.2189
81.56	2.53362
81.78	9.32113
82	10.4013
82.22	8.97884
82.44	14.0243
82.66	19.4557
82.88	12.496
83.1	13.222
83.32	6.18142
83.54	10.6166
83.76	2.98986
83.98	8.78296
84.2	18.792
84.42	11.8079
84.64	10.3021
84.86	10.2438
85.08	7.30927
85.3	6.52774
85.52	13.8249
85.74	7.89248
85.96	3.09488
86.18	4.7741
86.4	5.82463
86.62	0.118164
86.84	10.7031
87.06	6.95141
87.28	16.236
87.5	2.08061
87.72	8.18456
87.94	7.0297
88.16	9.10853
88.38	6.26758
88.6	20.4817
88.82	2.08642
89.04	7.65577
89.26	23.3405
89.48	5.18722
89.7	8.92645
89.92	8.26978
