Measurement: Powder, Xray Data XY Processed
Mineral: Digenite
Rruff sample: R060840
Ideal chemistry: Cu_1.8_S
Locality: Butte, Montana, USA
Source: Michael Scott
Description: Black to deep blue metallic massive, diffraction indicates that this sample is in the high temperature form
Diffraction sample description: Powder
Measured chemistry: (Cu_1.66_Fe_0.02_)_Î£=1.68_S_1.00_
Cell parameters: a: 5.5502(2) b: 5.5502(2) c: 5.5502(2) alpha: 90 beta: 90 gamma: 90 volume: 170.97(2) crystal system: cubic
x	intensity
5	0
5.22	24.7803
5.44	15.2
5.66	9.45227
5.88	17.9952
6.1	6.67476
6.32	14.4772
6.54	22.9174
6.76	6.41842
6.98	32.8718
7.2	17.7395
7.42	21.2855
7.64	5.12093
7.86	0.645233
8.08	8.95361
8.3	4.23085
8.52	11.6555
8.74	0.609619
8.96	12.7494
9.18	19.0423
9.4	0.42561
9.62	33.6107
9.84	0.60046
10.06	15.5922
10.28	13.533
10.5	11.8677
10.72	24.8867
10.94	1.8797
11.16	21.685
11.38	0.471474
11.6	21.3191
11.82	12.7074
12.04	18.1459
12.26	21.58
12.48	11.175
12.7	1.03386
12.92	8.86782
13.14	10.9725
13.36	18.2084
13.58	5.98067
13.8	15.3603
14.02	21.8822
14.24	6.61493
14.46	13.3189
14.68	5.4762
14.9	18.9861
15.12	17.8585
15.34	15.7271
15.56	14.6848
15.78	18.5212
16	17.8312
16.22	26.9598
16.44	29.077
16.66	17.847
16.88	23.6502
17.1	18.2645
17.32	13.5757
17.54	9.51264
17.76	18.1173
17.98	10.2207
18.2	23.3138
18.42	16.547
18.64	4.45994
18.86	15.8325
19.08	23.7207
19.3	14.1554
19.52	17.2301
19.74	16.1126
19.96	15.0196
20.18	39.0972
20.4	8.7034
20.62	15.2381
20.84	29.8832
21.06	8.82652
21.28	20.1999
21.5	16.3292
21.72	1.90816
21.94	23.7041
22.16	18.6238
22.38	12.8289
22.6	11.8074
22.82	28.7622
23.04	29.757
23.26	17.9013
23.48	18.921
23.7	6.41932
23.92	27.0692
24.14	9.72629
24.36	34.5877
24.58	15.1817
24.8	3.62088
25.02	13.4401
25.24	11.9863
25.46	11.0336
25.68	2.93411
25.9	14.0898
26.12	14.3699
26.34	4.29843
26.56	17.0123
26.78	31.7529
27	18.8606
27.22	2.02506
27.44	13.3465
27.66	18.5977
27.88	85.0864
28.1	30.0339
28.32	8.61826
28.54	16.5214
28.76	7.80564
28.98	32.7416
29.2	17.2255
29.42	18.6167
29.64	28.4921
29.86	7.06267
30.08	31.0916
30.3	7.09766
30.52	5.32806
30.74	19.9561
30.96	9.56568
31.18	14.9614
31.4	12.8046
31.62	4.21881
31.84	24.3623
32.06	32.1691
32.28	96.6892
32.5	24.0614
32.72	11.4648
32.94	23.3577
33.16	12.2482
33.38	0.697235
33.6	4.65279
33.82	25.2527
34.04	3.60778
34.26	15.2294
34.48	7.37068
34.7	6.43224
34.92	11.2658
35.14	7.082
35.36	16.493
35.58	3.996
35.8	16.8969
36.02	15.5588
36.24	0.667999
36.46	17.6693
36.68	17.44
36.9	12.5642
37.12	43.1579
37.34	18.1648
37.56	6.66096
37.78	39.3711
38	14.4824
38.22	20.4704
38.44	9.99102
38.66	3.81815
38.88	8.87424
39.1	12.4577
39.32	8.57024
39.54	4.45828
39.76	3.40893
39.98	4.91648
40.2	10.5643
40.42	17.4647
40.64	17.2813
40.86	4.99619
41.08	2.60136
41.3	4.50805
41.52	50.8364
41.74	22.7541
41.96	18.3528
42.18	7.79795
42.4	11.6006
42.62	14.0007
42.84	9.07904
43.06	16.2498
43.28	22.296
43.5	6.86499
43.72	8.2675
43.94	22.6219
44.16	11.221
44.38	16.3189
44.6	4.34999
44.82	26.4746
45.04	1.83397
45.26	35.267
45.48	6.81262
45.7	41.6823
45.92	34.7729
46.14	159.806
46.36	180.684
46.58	52.1621
46.8	20.7776
47.02	30.6165
47.24	12.644
47.46	25.299
47.68	25.8009
47.9	8.58892
48.12	2.80206
48.34	7.19344
48.56	3.83708
48.78	2.69061
49	38.4368
49.22	30.5495
49.44	12.9381
49.66	8.55256
49.88	21.6605
50.1	25.7
50.32	17.4933
50.54	15.8848
50.76	9.13934
50.98	10.311
51.2	3.54523
51.42	11.4897
51.64	29.6906
51.86	7.18515
52.08	9.13121
52.3	21.2697
52.52	17.4216
52.74	17.7866
52.96	15.3115
53.18	4.65038
53.4	2.85883
53.62	5.21256
53.84	9.4009
54.06	1.72276
54.28	13.1133
54.5	28.1565
54.72	34.1469
54.94	36.2594
55.16	15.8396
55.38	6.14097
55.6	25.6177
55.82	9.02402
56.04	3.86622
56.26	13.0105
56.48	2.07487
56.7	21.1297
56.92	30.2935
57.14	4.98161
57.36	0.962997
57.58	12.5284
57.8	4.25854
58.02	15.2444
58.24	9.72583
58.46	29.2355
58.68	8.31586
58.9	12.6049
59.12	0.926514
59.34	7.51715
59.56	26.5729
59.78	27.5414
60	12.324
60.22	7.95123
60.44	5.72713
60.66	16.7848
60.88	4.59809
61.1	26.0188
61.32	16.9536
61.54	13.904
61.76	19.9901
61.98	14.0926
62.2	21.1443
62.42	22.224
62.64	11.6907
62.86	41.5328
63.08	7.9505
63.3	6.76265
63.52	22.4469
63.74	22.055
63.96	19.0921
64.18	4.83788
64.4	14.1295
64.62	9.54785
64.84	16.8224
65.06	23.2163
65.28	0.449898
65.5	13.933
65.72	3.637
65.94	14.4108
66.16	15.5273
66.38	19.5178
66.6	9.95786
66.82	15.9373
67.04	11.0774
67.26	0.107841
67.48	17.8409
67.7	16.9754
67.92	32.2153
68.14	7.65697
68.36	16.6326
68.58	4.20048
68.8	0.346756
69.02	18.351
69.24	0.009651
69.46	31.9535
69.68	7.434
69.9	13.2234
70.12	25.7913
70.34	13.7242
70.56	12.6515
70.78	6.17062
71	8.15431
71.22	4.43826
71.44	9.95026
71.66	7.92151
71.88	16.1137
72.1	4.03236
72.32	3.00274
72.54	12.216
72.76	27.2186
72.98	7.21081
73.2	0.610836
73.42	16.3254
73.64	36.7539
73.86	24.3798
74.08	26.3727
74.3	6.23438
74.52	11.3036
74.74	20.1219
74.96	6.53691
75.18	20.6688
75.4	14.5683
75.62	18.3127
75.84	10.5845
76.06	14.0585
76.28	1.94949
76.5	3.59929
76.72	2.92241
76.94	5.69963
77.16	2.21596
77.38	7.72757
77.6	15.8373
77.82	13.1244
78.04	11.71
78.26	15.4535
78.48	26.2662
78.7	12.9234
78.92	11.167
79.14	2.88571
79.36	12.2978
79.58	7.93563
79.8	18.8953
80.02	13.5183
80.24	3.86783
80.46	16.4192
80.68	13.1146
80.9	16.8722
81.12	13.6401
81.34	9.61628
81.56	27.674
81.78	10.3639
82	26.6181
82.22	15.7734
82.44	8.57253
82.66	17.3751
82.88	24.8099
83.1	16.9712
83.32	15.1569
83.54	15.3419
83.76	2.49665
83.98	39.0083
84.2	3.00695
84.42	7.65284
84.64	21.295
84.86	11.2758
85.08	9.71264
85.3	7.10593
85.52	7.89207
85.74	17.0819
85.96	25.931
86.18	15.9366
86.4	20.2451
86.62	18.8377
86.84	18.5853
87.06	7.08364
87.28	13.6074
87.5	16.1644
87.72	16.1444
87.94	12.4599
88.16	25.786
88.38	9.88985
88.6	17.3473
88.82	20.4017
89.04	13.4145
89.26	17.1137
89.48	16.1792
89.7	14.0402
89.92	6.75649
