Measurement: Powder, Xray Data XY Processed
Mineral: Diopside
Rruff sample: R050406
Ideal chemistry: CaMgSi_2_O_6_
Locality: unknown
Source: University of Arizona Mineral Museum
Description: Brownish gray massive
Diffraction sample description: Powder
Measured chemistry: (Ca_0.95_Na_0.05_)(Mg_0.75_Fe^2+^_0.18_Fe^3+^_0.05_Al_0.01_Ti_0.01_Mn^2+^_0.01_)(Si_0.98_Al_0.02_)_2_O_6_
Cell parameters: a: 9.7538(6) b: 8.9225(4) c: 5.2568(3) alpha: 90 beta: 105.845(7) gamma: 90 volume: 440.11(3) crystal system: monoclinic
x	intensity
5	0
5.22	22.6137
5.44	18.2927
5.66	3.87624
5.88	7.8074
6.1	10.9102
6.32	8.51724
6.54	17.882
6.76	5.38713
6.98	4.04077
7.2	11.6619
7.42	3.06241
7.64	2.81469
7.86	6.33717
8.08	7.77106
8.3	11.2526
8.52	14.2764
8.74	5.72378
8.96	11.5758
9.18	7.40414
9.4	14.2559
9.62	11.1299
9.84	9.50893
10.06	3.20885
10.28	3.11786
10.5	13.4677
10.72	14.5012
10.94	3.76791
11.16	10.7937
11.38	7.39051
11.6	6.83598
11.82	12.9446
12.04	9.96349
12.26	12.5312
12.48	5.51733
12.7	10.6972
12.92	7.3054
13.14	5.98117
13.36	1.78783
13.58	5.65071
13.8	4.32888
14.02	10.0695
14.24	5.93013
14.46	5.93861
14.68	11.9603
14.9	3.17931
15.12	0.459667
15.34	9.68179
15.56	12.9397
15.78	3.04625
16	6.49036
16.22	5.2801
16.44	5.53529
16.66	8.90394
16.88	2.18072
17.1	10.5667
17.32	7.43233
17.54	1.81654
17.76	9.15149
17.98	2.32996
18.2	16.11
18.42	5.13136
18.64	13.4983
18.86	19.2709
19.08	2.8709
19.3	17.7589
19.52	9.09528
19.74	7.14065
19.96	8.17344
20.18	5.38019
20.4	3.20284
20.62	1.40335
20.84	11.3654
21.06	9.7368
21.28	11.778
21.5	14.0142
21.72	13.9932
21.94	21.35
22.16	14.1625
22.38	11.8362
22.6	11.6716
22.82	7.77819
23.04	11.6888
23.26	5.87016
23.48	8.56178
23.7	5.70822
23.92	9.49846
24.14	4.41484
24.36	12.3155
24.58	1.87636
24.8	9.50279
25.02	8.674
25.24	12.2363
25.46	0.204443
25.68	10.3393
25.9	6.95805
26.12	4.72124
26.34	4.36793
26.56	8.12553
26.78	11.1375
27	19.4404
27.22	13.6665
27.44	17.5121
27.66	48.9696
27.88	7.71939
28.1	16.8742
28.32	15.1334
28.54	1.34862
28.76	4.50776
28.98	14.509
29.2	8.03013
29.42	5.72125
29.64	29.3311
29.86	630.933
30.08	42.1597
30.3	112.984
30.52	13.5916
30.74	29.7478
30.96	61.9855
31.18	1.15121
31.4	1.28902
31.62	7.19627
31.84	16.3886
32.06	15.4886
32.28	1.77805
32.5	4.57123
32.72	7.06155
32.94	13.8623
33.16	5.77017
33.38	17.2027
33.6	8.12301
33.82	1.27683
34.04	2.47801
34.26	13.9601
34.48	11.3838
34.7	9.53699
34.92	86.9733
35.14	15.7376
35.36	47.1792
35.58	129.555
35.8	33.0435
36.02	9.8897
36.24	12.5041
36.46	6.0089
36.68	7.6818
36.9	7.95785
37.12	5.91835
37.34	2.68474
37.56	7.87727
37.78	9.15376
38	15.2204
38.22	4.99832
38.44	23.5943
38.66	7.31863
38.88	3.39933
39.1	49.0888
39.32	5.29683
39.54	10.7405
39.76	6.56845
39.98	7.01047
40.2	1.94385
40.42	17.8312
40.64	31.4453
40.86	21.9154
41.08	11.5649
41.3	7.74042
41.52	7.3588
41.74	14.1607
41.96	18.9218
42.18	7.28835
42.4	39.9901
42.62	6.86745
42.84	24.909
43.06	1.11373
43.28	0.137602
43.5	7.29114
43.72	6.39732
43.94	7.5581
44.16	14.048
44.38	34.8637
44.6	13.9643
44.82	22.6013
45.04	35.5133
45.26	16.6667
45.48	10.7852
45.7	6.31898
45.92	0.339777
46.14	15.2268
46.36	12.048
46.58	11.5307
46.8	9.81155
47.02	16.1064
47.24	3.86548
47.46	3.26847
47.68	1.28104
47.9	26.1033
48.12	5.75487
48.34	12.6299
48.56	8.92593
48.78	7.6459
49	8.06199
49.22	5.80133
49.44	8.18666
49.66	23.1918
49.88	7.37846
50.1	13.3386
50.32	6.33604
50.54	10.7015
50.76	0.842443
50.98	14.8565
51.2	0.237562
51.42	6.77405
51.64	9.7362
51.86	11.2735
52.08	41.2943
52.3	23.2016
52.52	9.69904
52.74	11.1157
52.96	1.74663
53.18	3.0983
53.4	0.59716
53.62	10.9589
53.84	5.09661
54.06	4.02392
54.28	10.0114
54.5	18.1437
54.72	21.7416
54.94	10.1906
55.16	1.51123
55.38	17.2403
55.6	3.36074
55.82	5.97694
56.04	8.4867
56.26	9.40227
56.48	29.4621
56.7	38.5338
56.92	24.6299
57.14	21.7444
57.36	8.12313
57.58	8.58616
57.8	3.98836
58.02	13.1695
58.24	2.44565
58.46	11.5444
58.68	3.40117
58.9	10.7982
59.12	2.46523
59.34	30.0669
59.56	14.832
59.78	14.3504
60	12.1175
60.22	12.1193
60.44	19.9039
60.66	17.7657
60.88	9.89119
61.1	3.91534
61.32	7.99174
61.54	18.3467
61.76	16.1848
61.98	2.53309
62.2	5.09211
62.42	25.0806
62.64	8.97955
62.86	13.9114
63.08	10.3022
63.3	6.48319
63.52	4.26264
63.74	9.37092
63.96	14.1574
64.18	18.5884
64.4	19.2271
64.62	1.69186
64.84	9.52921
65.06	6.4584
65.28	17.4162
65.5	58.9683
65.72	30.0413
65.94	15.5324
66.16	17.4958
66.38	27.3164
66.6	2.65209
66.82	1.24361
67.04	14.0955
67.26	4.68664
67.48	0.187944
67.7	4.73312
67.92	6.29997
68.14	14.3846
68.36	3.92011
68.58	5.73491
68.8	3.9776
69.02	14.1923
69.24	3.61643
69.46	1.29609
69.68	13.1652
69.9	13.9811
70.12	3.24097
70.34	13.6755
70.56	29.5037
70.78	18.302
71	17.8991
71.22	21.8855
71.44	4.70809
71.66	13.9795
71.88	13.5571
72.1	6.78669
72.32	19.9468
72.54	5.09088
72.76	11.7882
72.98	2.82829
73.2	10.9931
73.42	14.1687
73.64	12.2647
73.86	36.0604
74.08	17.2422
74.3	5.92181
74.52	9.86792
74.74	10.8552
74.96	7.79197
75.18	0.732302
75.4	2.78538
75.62	9.70537
75.84	1.23297
76.06	4.79315
76.28	9.24864
76.5	6.99088
76.72	8.28737
76.94	13.5804
77.16	8.19307
77.38	11.656
77.6	6.90836
77.82	7.08685
78.04	10.6885
78.26	4.08174
78.48	22.1167
78.7	13.9055
78.92	16.5945
79.14	5.76888
79.36	7.91727
79.58	3.42407
79.8	7.18113
80.02	11.3828
80.24	8.31799
80.46	8.24278
80.68	10.984
80.9	11.9356
81.12	0.08383
81.34	9.9214
81.56	0.130766
81.78	9.64986
82	11.6664
82.22	7.91336
82.44	0.19548
82.66	8.89444
82.88	2.02236
83.1	13.2759
83.32	7.3985
83.54	10.5711
83.76	5.80615
83.98	17.9022
84.2	13.0659
84.42	11.0863
84.64	8.16753
84.86	18.1364
85.08	9.21398
85.3	0.285358
85.52	1.9959
85.74	5.57966
85.96	15.4188
86.18	9.24823
86.4	13.0852
86.62	11.8628
86.84	0.871204
87.06	13.6265
87.28	4.74039
87.5	12.9099
87.72	12.2426
87.94	3.43217
88.16	3.98083
88.38	9.13371
88.6	12.576
88.82	19.1979
89.04	11.6994
89.26	16.0703
89.48	14.472
89.7	1.61487
89.92	18.4882
