Measurement: Powder, Xray Data XY Processed
Mineral: Dioptase
Rruff sample: R040028
Ideal chemistry: Cu^2+^SiO_3_H_2_O
Locality: Tantara mine, Democratic Republic of the Congo
Source: University of Arizona Mineral Museum
Description: Bluish green coarsely crystallized fragment
Diffraction sample description: Powder
Measured chemistry: Cu_1.00_Si_1.00_O_3_Â·H_2_O; H_2_O estimated by difference
Cell parameters: a: 14.5757(2) b: 14.5757(2) c: 7.7810(2) alpha: 90. beta: 90. gamma: 120. volume: 1431.62(4) crystal system: hexagonal
x	intensity
5	0
5.22	37.63
5.44	10.834
5.66	19.97
5.88	29.711
6.1	29.138
6.32	10.769
6.54	4.218
6.76	26.178
6.98	42.381
7.2	9.997
7.42	6.263
7.64	29.653
7.86	21.216
8.08	28.405
8.3	14.799
8.52	7.634
8.74	17.261
8.96	6.146
9.18	23.627
9.4	35.886
9.62	1.1
9.84	14.157
10.06	19.583
10.28	13.412
10.5	23.139
10.72	1.374
10.94	35.852
11.16	20.952
11.38	17.217
11.6	22.058
11.82	21.005
12.04	218.713
12.26	242.201
12.48	34.314
12.7	22.754
12.92	16.682
13.14	1.919
13.36	55.416
13.58	13.553
13.8	6.165
14.02	24.325
14.24	34.044
14.46	16.458
14.68	11.535
14.9	23.68
15.12	13.823
15.34	5.329
15.56	8.617
15.78	35.245
16	8.634
16.22	16.465
16.44	23.915
16.66	7.411
16.88	24.007
17.1	12.52
17.32	15.924
17.54	11.596
17.76	20.462
17.98	37.15
18.2	234.22
18.42	43.272
18.64	4.586
18.86	15.07
19.08	33.143
19.3	3.719
19.52	5.985
19.74	32.682
19.96	2.864
20.18	3.54
20.4	8.441
20.62	0.89
20.84	10.555
21.06	26.202
21.28	19.061
21.5	5.505
21.72	32.051
21.94	572.512
22.16	22.205
22.38	11.411
22.6	26.286
22.82	29.646
23.04	7.611
23.26	13.472
23.48	4.485
23.7	18.03
23.92	57.242
24.14	6.567
24.36	38.208
24.58	33.946
24.8	4.055
25.02	2.316
25.24	33.387
25.46	9.626
25.68	12.348
25.9	19.599
26.12	10.07
26.34	28.309
26.56	22.401
26.78	19.545
27	110.76
27.22	4.36
27.44	11.218
27.66	2.234
27.88	99.622
28.1	64.354
28.32	4.387
28.54	23.23
28.76	15.759
28.98	22.622
29.2	6.607
29.42	26.075
29.64	103.297
29.86	23.958
30.08	7.47
30.3	16.534
30.52	15.87
30.74	18.529
30.96	14.09
31.18	12.942
31.4	18.023
31.62	17.381
31.84	6.528
32.06	8.608
32.28	1.902
32.5	210.181
32.72	34.156
32.94	64.14
33.16	78.335
33.38	0.471
33.6	14.693
33.82	1.054
34.04	10.525
34.26	42.92
34.48	1573.69
34.7	126.493
34.92	5.25
35.14	12.385
35.36	11.708
35.58	27.903
35.8	5.88
36.02	43.088
36.24	3.165
36.46	14.527
36.68	45.184
36.9	209.295
37.12	10.521
37.34	21.417
37.56	109.344
37.78	24.704
38	6.914
38.22	18.05
38.44	19.282
38.66	12.84
38.88	31.185
39.1	0.936
39.32	28.989
39.54	191.518
39.76	3.482
39.98	15.563
40.2	17.547
40.42	4.544
40.64	18.306
40.86	139.555
41.08	21.848
41.3	13.946
41.52	48.333
41.74	15.472
41.96	8.014
42.18	8.305
42.4	20.475
42.62	92.165
42.84	240.128
43.06	24.069
43.28	1.698
43.5	7.455
43.72	23.646
43.94	16.773
44.16	14.183
44.38	19.093
44.6	90.643
44.82	177.668
45.04	24.005
45.26	16.498
45.48	14.293
45.7	22.333
45.92	36.928
46.14	10.07
46.36	88.328
46.58	16.924
46.8	19.159
47.02	30.588
47.24	1.894
47.46	32.092
47.68	19.877
47.9	1.937
48.12	29.752
48.34	40.295
48.56	11.458
48.78	33.196
49	20.325
49.22	25.541
49.44	5.974
49.66	14.84
49.88	23.189
50.1	36.084
50.32	16.33
50.54	9.148
50.76	14.721
50.98	14.821
51.2	10.138
51.42	29.68
51.64	26.42
51.86	17.602
52.08	110.29
52.3	29.96
52.52	1.342
52.74	12.073
52.96	21.709
53.18	54.547
53.4	6.98
53.62	48.365
53.84	65.013
54.06	219.508
54.28	6.8
54.5	4.703
54.72	1.03
54.94	35.934
55.16	22.609
55.38	7.639
55.6	19.756
55.82	21.736
56.04	5.829
56.26	78.01
56.48	21.608
56.7	20.807
56.92	21.292
57.14	53.448
57.36	5.171
57.58	20.426
57.8	33.255
58.02	63.753
58.24	13.482
58.46	15.795
58.68	7.622
58.9	5.019
59.12	16.519
59.34	26.564
59.56	16.134
59.78	32.736
60	9.549
60.22	22.376
60.44	4.987
60.66	5.259
60.88	6.26
61.1	10.288
61.32	38.609
61.54	108.299
61.76	38.845
61.98	16.477
62.2	52.277
62.42	78.844
62.64	16.175
62.86	6.51
63.08	3.936
63.3	4.476
63.52	23.209
63.74	35.252
63.96	20.762
64.18	50.594
64.4	21.802
64.62	23.005
64.84	16.034
65.06	39.01
65.28	20.732
65.5	38.379
65.72	43.942
65.94	25.253
66.16	9.1
66.38	24.779
66.6	48.883
66.82	10.389
67.04	35.235
67.26	7.236
67.48	2.692
67.7	4.407
67.92	10.261
68.14	4.72
68.36	12.422
68.58	56.612
68.8	36.327
69.02	14.024
69.24	78.923
69.46	76.884
69.68	19.14
69.9	11.662
70.12	22.675
70.34	14.642
70.56	52.698
70.78	35.611
71	3.365
71.22	13.662
71.44	24.117
71.66	18.676
71.88	2.288
72.1	14.042
72.32	18.248
72.54	50.682
72.76	29.601
72.98	33.741
73.2	2.617
73.42	6.239
73.64	0.282
73.86	40.264
74.08	19.771
74.3	39.698
74.52	14.442
74.74	5.652
74.96	2.394
75.18	2.684
75.4	8.225
75.62	18.028
75.84	12.777
76.06	0.607
76.28	2.912
76.5	17.425
76.72	13.161
76.94	16.499
77.16	18.395
77.38	26.675
77.6	10.549
77.82	8.527
78.04	16.505
78.26	9.013
78.48	14.635
78.7	19.181
78.92	32.164
79.14	24.331
79.36	18.674
79.58	17.233
79.8	6.758
80.02	15.217
80.24	8.427
80.46	19.949
80.68	22.242
80.9	1.627
81.12	23.935
81.34	31.603
81.56	22.671
81.78	37.79
82	17.006
82.22	14.998
82.44	11.46
82.66	14.027
82.88	0.08
83.1	12.796
83.32	11.998
83.54	24.545
83.76	5.449
83.98	10.632
84.2	6.466
84.42	33.911
84.64	18.546
84.86	21.375
85.08	20.439
85.3	12.481
85.52	23.48
85.74	24.387
85.96	12.06
86.18	12.712
86.4	10.475
86.62	17.895
86.84	23.45
87.06	1.339
87.28	13.434
87.5	26.228
87.72	10.74
87.94	7.933
88.16	16.602
88.38	22.824
88.6	6.2
88.82	18.748
89.04	20.687
89.26	6.327
89.48	0.477
89.7	6.909
89.92	9.99
