Measurement: Powder, Xray Data XY Processed
Mineral: Diopside
Rruff sample: R070123
Ideal chemistry: CaMgSi_2_O_6_
Locality: Yates mine, Otter Lake, Huddersfield Township, Pontiac County, Québec, Canada
Source: Michael Scott
Description: Black prismatic crystals associated with orange calcite
Diffraction sample description: Powder
Measured chemistry: (Ca_0.95_Na_0.04_Mn_0.01_)_Σ=1_(Mg_0.63_Fe_0.33_Al_0.04_)_Σ=1_Si_2.00_O_6_
Cell parameters: a: 9.7658(4) b: 8.9410(3) c: 5.2568(3) alpha: 90 beta: 105.696(4) gamma: 90 volume: 441.89(2) crystal system: monoclinic
x	intensity
5	0
5.22	17.1082
5.44	6.68458
5.66	16.567
5.88	18.1646
6.1	12.9618
6.32	17.0671
6.54	26.7938
6.76	9.87758
6.98	23.5224
7.2	11.6078
7.42	4.87175
7.64	5.01355
7.86	1.94278
8.08	3.51702
8.3	9.33493
8.52	17.9034
8.74	7.97146
8.96	13.2927
9.18	13.8606
9.4	2.52805
9.62	3.15616
9.84	7.26024
10.06	5.43061
10.28	5.17374
10.5	8.12876
10.72	2.9729
10.94	8.84116
11.16	1.49103
11.38	10.5373
11.6	8.30076
11.82	14.675
12.04	1.52988
12.26	1.44352
12.48	6.91835
12.7	14.499
12.92	25.4837
13.14	19.5498
13.36	6.00323
13.58	0.048458
13.8	8.94155
14.02	9.31857
14.24	14.6151
14.46	19.6259
14.68	9.58975
14.9	14.5232
15.12	11.6225
15.34	0.570263
15.56	3.36837
15.78	8.49967
16	2.90387
16.22	13.1681
16.44	23.134
16.66	1.62413
16.88	22.4049
17.1	2.16048
17.32	15.164
17.54	24.4625
17.76	3.63415
17.98	11.2684
18.2	5.28702
18.42	15.3867
18.64	16.4144
18.86	21.1536
19.08	12.5852
19.3	21.9502
19.52	3.18476
19.74	1.14233
19.96	35.2073
20.18	0.612049
20.4	19.5224
20.62	3.87197
20.84	0.322647
21.06	6.69781
21.28	6.95296
21.5	5.09431
21.72	5.62448
21.94	17.7198
22.16	18.5341
22.38	19.5386
22.6	10.507
22.82	19.4922
23.04	20.025
23.26	12.4619
23.48	12.0779
23.7	7.0598
23.92	17.8445
24.14	20.3068
24.36	20.5022
24.58	11.3865
24.8	8.13419
25.02	12.6145
25.24	13.0442
25.46	8.52916
25.68	9.16566
25.9	16.2558
26.12	5.93258
26.34	1.39854
26.56	16.6504
26.78	19.7362
27	5.28365
27.22	3.09435
27.44	12.711
27.66	35.4731
27.88	25.0212
28.1	4.63399
28.32	6.98633
28.54	0.071373
28.76	2.35984
28.98	7.58009
29.2	9.73234
29.42	7.49561
29.64	14.618
29.86	611.715
30.08	44.3686
30.3	185.106
30.52	16.6028
30.74	17.4728
30.96	120.051
31.18	14.8701
31.4	11.0297
31.62	5.10601
31.84	12.6602
32.06	21.5679
32.28	3.30222
32.5	0.582802
32.72	11.4243
32.94	5.08759
33.16	1.13457
33.38	13.7566
33.6	26.2068
33.82	14.698
34.04	2.76265
34.26	11.3295
34.48	12.6934
34.7	5.22016
34.92	107.976
35.14	15.9094
35.36	15.6509
35.58	240.329
35.8	35.705
36.02	2.46236
36.24	9.56727
36.46	1.68914
36.68	6.83049
36.9	1.73069
37.12	16.5214
37.34	22.8441
37.56	20.9772
37.78	14.0929
38	15.4276
38.22	22.4825
38.44	3.46214
38.66	6.77056
38.88	18.2802
39.1	58.9679
39.32	15.8695
39.54	4.83472
39.76	13.6207
39.98	3.39363
40.2	14.4304
40.42	15.8398
40.64	27.1586
40.86	24.1097
41.08	15.9143
41.3	10.487
41.52	4.5188
41.74	19.0645
41.96	39.8166
42.18	2.0902
42.4	58.9375
42.62	0.805649
42.84	72.6532
43.06	13.9132
43.28	1.25512
43.5	10.1567
43.72	3.42741
43.94	7.55867
44.16	22.7633
44.38	39.5162
44.6	1.31617
44.82	9.158
45.04	46.7231
45.26	12.3572
45.48	17.8155
45.7	11.4003
45.92	3.12541
46.14	16.3568
46.36	13.7006
46.58	18.6952
46.8	15.6142
47.02	17.7958
47.24	12.339
47.46	9.83638
47.68	20.4208
47.9	21.1517
48.12	13.7787
48.34	15.312
48.56	13.0969
48.78	8.82078
49	19.9415
49.22	15.9654
49.44	3.02185
49.66	39.1003
49.88	3.1057
50.1	19.0911
50.32	20.2399
50.54	13.5273
50.76	24.8524
50.98	6.91517
51.2	16.8517
51.42	14.5745
51.64	19.944
51.86	24.8934
52.08	90.4951
52.3	15.7215
52.52	0.455566
52.74	24.1057
52.96	12.6198
53.18	8.11891
53.4	15.2073
53.62	0.743923
53.84	9.38449
54.06	6.41294
54.28	4.23066
54.5	18.7207
54.72	12.6331
54.94	34.3748
55.16	6.43359
55.38	36.8315
55.6	1.06264
55.82	4.70862
56.04	7.6666
56.26	12.2856
56.48	57.2957
56.7	76.4214
56.92	16.0934
57.14	17.2937
57.36	19.996
57.58	13.7896
57.8	15.1586
58.02	18.4007
58.24	5.63065
58.46	17.4958
58.68	11.7029
58.9	21.151
59.12	9.94067
59.34	15.5489
59.56	18.1418
59.78	24.3899
60	14.9318
60.22	10.4862
60.44	22.2247
60.66	22.8652
60.88	15.762
61.1	9.13308
61.32	15.8314
61.54	26.7849
61.76	28.5834
61.98	1.20625
62.2	12.6582
62.42	11.7379
62.64	14.961
62.86	7.02801
63.08	4.90544
63.3	15.9393
63.52	9.73226
63.74	21.5715
63.96	17.7696
64.18	3.92902
64.4	12.1731
64.62	3.44143
64.84	12.0428
65.06	7.76514
65.28	28.5067
65.5	28.8223
65.72	18.2431
65.94	20.9469
66.16	23.2527
66.38	40.6988
66.6	15.154
66.82	23.0424
67.04	10.8972
67.26	32.4293
67.48	3.54945
67.7	20.4753
67.92	3.5099
68.14	5.85516
68.36	11.8123
68.58	3.87938
68.8	2.14253
69.02	4.58368
69.24	7.53925
69.46	16.3921
69.68	2.10915
69.9	0.431431
70.12	13.9377
70.34	2.84809
70.56	4.49176
70.78	29.3835
71	20.3202
71.22	15.1765
71.44	9.91371
71.66	17.3943
71.88	11.6473
72.1	19.074
72.32	3.59041
72.54	2.63089
72.76	8.62021
72.98	20.9989
73.2	6.56901
73.42	7.42437
73.64	19.2888
73.86	10.0659
74.08	5.5335
74.3	3.93598
74.52	16.9514
74.74	10.3833
74.96	12.3345
75.18	8.99101
75.4	22.7131
75.62	9.80499
75.84	5.89112
76.06	30.8845
76.28	20.4617
76.5	7.98611
76.72	21.0978
76.94	30.3968
77.16	15.5899
77.38	13.6279
77.6	14.3033
77.82	11.1616
78.04	0.067181
78.26	11.9821
78.48	17.0611
78.7	3.98323
78.92	20.8875
79.14	8.8247
79.36	14.0575
79.58	8.51096
79.8	4.61686
80.02	11.6044
80.24	5.93102
80.46	18.4274
80.68	9.34502
80.9	12.5301
81.12	13.3174
81.34	19.7377
81.56	0.947502
81.78	31.1011
82	22.5637
82.22	26.9919
82.44	7.27906
82.66	18.2254
82.88	8.79045
83.1	17.9195
83.32	23.9512
83.54	12.7241
83.76	13.5433
83.98	8.60187
84.2	23.6072
84.42	0.1404
84.64	2.54925
84.86	18.9428
85.08	6.60189
85.3	22.5652
85.52	15.5636
85.74	22.5041
85.96	2.4775
86.18	4.43699
86.4	13.2536
86.62	7.07382
86.84	18.2009
87.06	9.5565
87.28	24.4776
87.5	9.84345
87.72	3.05756
87.94	19.3041
88.16	15.962
88.38	16.3956
88.6	17.2371
88.82	5.09328
89.04	20.1012
89.26	16.2209
89.48	7.02562
89.7	21.312
89.92	9.03298
