Measurement: Powder, Xray Data XY Processed
Mineral: Diopside
Rruff sample: R050666
Ideal chemistry: CaMgSi_2_O_6_
Locality: Franklin, Sussex County, New Jersey, USA
Source: University of Arizona Mineral Museum
Description: Brown cleavage fragment with white hardystonite
Diffraction sample description: Powder
Measured chemistry: Ca(Mg_0.66_Mn_0.33_Fe_0.01_)Si_2_O_6_
Cell parameters: a: 9.8104(6) b: 8.9909(4) c: 5.2641(3) alpha: 90. beta: 105.618(6) gamma: 90. volume: 447.17(3) crystal system: monoclinic
x	intensity
5	0
5.22	7.021
5.44	12.859
5.66	13.171
5.88	5.957
6.1	8.983
6.32	11.242
6.54	10.568
6.76	15.279
6.98	10.546
7.2	8.347
7.42	11.055
7.64	4.737
7.86	21.41
8.08	4.348
8.3	5.146
8.52	6.773
8.74	5.315
8.96	0.974
9.18	20.067
9.4	6.485
9.62	6.837
9.84	20.171
10.06	6.692
10.28	6.095
10.5	6.346
10.72	1.482
10.94	18.756
11.16	17.21
11.38	10.503
11.6	12.62
11.82	5.386
12.04	0.324
12.26	10.456
12.48	0.286
12.7	6.189
12.92	3.951
13.14	6.947
13.36	4.125
13.58	10.962
13.8	1.863
14.02	6.031
14.24	5.279
14.46	0.511
14.68	9.638
14.9	0.048
15.12	8.206
15.34	7.3
15.56	4.481
15.78	7.515
16	7.539
16.22	5.578
16.44	6.72
16.66	9.58
16.88	1.528
17.1	9.61
17.32	12.553
17.54	6.499
17.76	9.544
17.98	4.448
18.2	3.851
18.42	9.055
18.64	6.225
18.86	9.226
19.08	13.213
19.3	1.03
19.52	10.964
19.74	17.21
19.96	25.39
20.18	16.442
20.4	8.682
20.62	7.294
20.84	10.293
21.06	4.276
21.28	3.127
21.5	1.083
21.72	0.992
21.94	8.95
22.16	5.754
22.38	4.744
22.6	3.877
22.82	8.571
23.04	1.826
23.26	8.812
23.48	2.981
23.7	0.259
23.92	3.285
24.14	0.321
24.36	4.596
24.58	6.59
24.8	4.512
25.02	2.204
25.24	10.095
25.46	2.689
25.68	3.479
25.9	5.48
26.12	2.021
26.34	5.841
26.56	15.735
26.78	4.411
27	1.334
27.22	8.33
27.44	85.621
27.66	5.574
27.88	12.821
28.1	9.521
28.32	2.068
28.54	6.733
28.76	4.327
28.98	0.172
29.2	0.364
29.42	6.816
29.64	56.036
29.86	91.644
30.08	139.733
30.3	15.755
30.52	8.847
30.74	68.482
30.96	6.26
31.18	4.906
31.4	2.741
31.62	15.593
31.84	12.293
32.06	0.985
32.28	3.207
32.5	7.668
32.72	1.531
32.94	7.384
33.16	4.875
33.38	7.233
33.6	17.744
33.82	6.921
34.04	3.964
34.26	2.25
34.48	11.633
34.7	36.238
34.92	25.556
35.14	11.082
35.36	57.343
35.58	45.673
35.8	6.09
36.02	9.82
36.24	0.332
36.46	7.665
36.68	5.427
36.9	17.11
37.12	8.564
37.34	5.726
37.56	0.526
37.78	8.683
38	9.52
38.22	8.811
38.44	6.248
38.66	8.441
38.88	35.254
39.1	18.928
39.32	2.477
39.54	5.143
39.76	8.695
39.98	3.584
40.2	3.058
40.42	11.655
40.64	16.041
40.86	12.953
41.08	0.368
41.3	1.858
41.52	13.679
41.74	17.794
41.96	5.306
42.18	34.637
42.4	0.203
42.62	18.929
42.84	6.962
43.06	0.863
43.28	4.132
43.5	5.271
43.72	8.164
43.94	6.245
44.16	25.616
44.38	3.359
44.6	14.556
44.82	28.521
45.04	17.732
45.26	8.174
45.48	0.485
45.7	5.837
45.92	14.201
46.14	4.655
46.36	5.333
46.58	3.351
46.8	0.836
47.02	11.596
47.24	5.791
47.46	9.729
47.68	8.448
47.9	1.657
48.12	5.995
48.34	4.675
48.56	11.648
48.78	7.07
49	5.647
49.22	11.357
49.44	9.456
49.66	11.838
49.88	3.873
50.1	3.892
50.32	4.191
50.54	5.301
50.76	7.397
50.98	3.117
51.2	12.157
51.42	5.538
51.64	14.4
51.86	29.511
52.08	1.138
52.3	6.179
52.52	10.358
52.74	5.146
52.96	11.415
53.18	7.613
53.4	7.675
53.62	2.545
53.84	4.812
54.06	5.907
54.28	10.676
54.5	13.642
54.72	0.499
54.94	5.36
55.16	9.202
55.38	9.65
55.6	0.483
55.82	2.671
56.04	19.579
56.26	65.122
56.48	62.028
56.7	28.937
56.92	3.183
57.14	6.296
57.36	8.505
57.58	3.591
57.8	3.7
58.02	6.812
58.24	4.544
58.46	0.884
58.68	20.251
58.9	5.309
59.12	24.274
59.34	7.231
59.56	5.933
59.78	2.065
60	0.059
60.22	27.989
60.44	16.884
60.66	4.807
60.88	8.151
61.1	0.065
61.32	9.124
61.54	8.191
61.76	17.287
61.98	10.833
62.2	7.875
62.42	3.552
62.64	13.584
62.86	5.581
63.08	8.828
63.3	9.169
63.52	2.858
63.74	5.421
63.96	6.095
64.18	11.759
64.4	9.606
64.62	3.266
64.84	6.443
65.06	35.254
65.28	12.398
65.5	5.59
65.72	1.514
65.94	16.615
66.16	12.881
66.38	2.428
66.6	1.773
66.82	9.926
67.04	8.269
67.26	5.856
67.48	8.413
67.7	8.948
67.92	8.973
68.14	12.319
68.36	6.783
68.58	16.052
68.8	2.842
69.02	2.172
69.24	5.712
69.46	10.539
69.68	5.096
69.9	7.8
70.12	2.101
70.34	14.749
70.56	15.317
70.78	13.082
71	10.194
71.22	1.134
71.44	8.233
71.66	5.023
71.88	3.305
72.1	2.452
72.32	5.42
72.54	9.507
72.76	4.532
72.98	3.578
73.2	13.5
73.42	16.127
73.64	7.124
73.86	6.057
74.08	8.347
74.3	2.333
74.52	3.198
74.74	3.133
74.96	10.301
75.18	5.276
75.4	3.157
75.62	13.182
75.84	11.459
76.06	5.572
76.28	5.699
76.5	12.826
76.72	0.306
76.94	4.94
77.16	4.104
77.38	6.204
77.6	5.462
77.82	6.615
78.04	16.79
78.26	2.648
78.48	7.633
78.7	3.738
78.92	8.356
79.14	9.474
79.36	11.509
79.58	7.497
79.8	13.646
80.02	4.925
80.24	8.916
80.46	6.715
80.68	6.108
80.9	4.042
81.12	4.561
81.34	7.259
81.56	9.17
81.78	1.055
82	12.15
82.22	4.96
82.44	4.676
82.66	5.606
82.88	8.543
83.1	9.218
83.32	8.228
83.54	0.705
83.76	10.447
83.98	9.477
84.2	4.511
84.42	8.544
84.64	11.543
84.86	3.699
85.08	6.386
85.3	6.418
85.52	10.272
85.74	7.213
85.96	0.967
86.18	9.89
86.4	13.888
86.62	4.79
86.84	12.51
87.06	12.425
87.28	1.741
87.5	8.293
87.72	6.459
87.94	2.936
88.16	13.232
88.38	6.632
88.6	12.263
88.82	7.222
89.04	11.828
89.26	10.976
89.48	10.459
89.7	0.345
89.92	9.004
