Measurement: Powder, Xray Data XY Processed
Mineral: Dolomite
Rruff sample: R050357
Ideal chemistry: CaMg(CO_3_)_2_
Locality: Black Rock, Lawrence County, Arkansas, USA
Source: California Institute of Technology
Description: Aggregate of pale pink curved saddle-shaped crystals
Diffraction sample description: Powder
Measured chemistry: Ca_1.00_(Mg_0.98_Fe^2+^_0.02_)_Î£=1_(CO_3_)_2_ ; CO_2_ estimated by difference
Cell parameters: a: 4.8125(2) b: 4.8125(2) c: 16.039(3) alpha: 90. beta: 90. gamma: 120. volume: 321.70(4) crystal system: hexagonal
x	intensity
5	0
5.22	12.578
5.44	12.5222
5.66	11.6496
5.88	4.27407
6.1	10.0951
6.32	15.2518
6.54	23.5904
6.76	21.7895
6.98	30.8124
7.2	12.2094
7.42	12.9689
7.64	4.33776
7.86	2.27061
8.08	2.87886
8.3	1.4003
8.52	4.07593
8.74	4.46814
8.96	0.353625
9.18	6.83381
9.4	8.85089
9.62	3.17885
9.84	10.9993
10.06	4.26504
10.28	9.34352
10.5	6.39674
10.72	1.5515
10.94	1.39446
11.16	3.03681
11.38	10.3468
11.6	3.70087
11.82	5.99791
12.04	13.9437
12.26	0.88302
12.48	8.01214
12.7	2.97949
12.92	3.16443
13.14	0.182027
13.36	9.85239
13.58	7.76337
13.8	9.9573
14.02	1.86465
14.24	4.90285
14.46	6.17239
14.68	6.325
14.9	6.68868
15.12	9.03309
15.34	8.20434
15.56	2.40887
15.78	9.02955
16	4.06471
16.22	7.1209
16.44	9.21635
16.66	9.25665
16.88	4.32865
17.1	4.49355
17.32	4.3369
17.54	3.19442
17.76	3.23908
17.98	0.714197
18.2	2.9657
18.42	1.05131
18.64	12.1091
18.86	4.1071
19.08	4.10824
19.3	5.13531
19.52	2.07962
19.74	2.10171
19.96	6.22576
20.18	2.28452
20.4	2.35199
20.62	7.35588
20.84	4.29235
21.06	7.11368
21.28	0.059945
21.5	14.1557
21.72	7.25902
21.94	14.0373
22.16	6.18522
22.38	4.23695
22.6	11.1016
22.82	8.86201
23.04	1.85704
23.26	3.82207
23.48	11.8762
23.7	12.2219
23.92	8.34031
24.14	61.1765
24.36	6.44254
24.58	0.365589
24.8	9.56685
25.02	8.62751
25.24	2.68117
25.46	2.83469
25.68	9.84621
25.9	1.95677
26.12	7.75939
26.34	5.76821
26.56	0.664637
26.78	3.40278
27	1.27825
27.22	1.15772
27.44	2.93163
27.66	5.90457
27.88	15.9516
28.1	4.72987
28.32	2.44026
28.54	9.17864
28.76	2.4638
28.98	4.85445
29.2	1.04933
29.42	0.194154
29.64	3.30284
29.86	2.80516
30.08	0.832048
30.3	13.1687
30.52	17.7565
30.74	73.3132
30.96	1019.32
31.18	157.361
31.4	24.7536
31.62	7.59605
31.84	7.87008
32.06	4.18811
32.28	9.60074
32.5	7.4393
32.72	8.27807
32.94	11.2365
33.16	4.6867
33.38	7.13566
33.6	57.6837
33.82	22.1319
34.04	9.07883
34.26	1.65043
34.48	2.38443
34.7	8.86494
34.92	8.79725
35.14	11.937
35.36	39.5648
35.58	17.4738
35.8	5.16028
36.02	6.59998
36.24	4.53641
36.46	2.50068
36.68	5.50403
36.9	3.80699
37.12	8.05524
37.34	42.3067
37.56	25.2541
37.78	15.4025
38	0.31421
38.22	8.66524
38.44	6.795
38.66	11.9617
38.88	1.00517
39.1	4.1354
39.32	5.75515
39.54	5.18331
39.76	2.94025
39.98	0.568551
40.2	6.37337
40.42	12.0492
40.64	11.8345
40.86	13.1847
41.08	107.256
41.3	103.518
41.52	5.41769
41.74	4.78681
41.96	5.18488
42.18	6.75505
42.4	0.845332
42.62	12.83
42.84	9.76925
43.06	3.82061
43.28	6.13181
43.5	7.75071
43.72	7.20077
43.94	22.8711
44.16	7.41596
44.38	11.8178
44.6	13.5462
44.82	26.6873
45.04	120.958
45.26	16.4684
45.48	2.62277
45.7	1.01181
45.92	2.61528
46.14	5.18453
46.36	1.62514
46.58	0.886871
46.8	8.95942
47.02	6.87516
47.24	5.98828
47.46	8.24129
47.68	0.690201
47.9	5.29505
48.12	1.63284
48.34	5.68585
48.56	1.97927
48.78	4.98979
49	0.013301
49.22	21.0613
49.44	28.1834
49.66	3.91466
49.88	5.8185
50.1	13.1601
50.32	26.9074
50.54	133.005
50.76	69.4959
50.98	71.2383
51.2	99.7173
51.42	23.7072
51.64	4.95342
51.86	6.07757
52.08	2.36849
52.3	4.66719
52.52	2.59028
52.74	8.43079
52.96	8.1158
53.18	6.43141
53.4	5.16442
53.62	13.1324
53.84	6.38087
54.06	3.42675
54.28	11.7814
54.5	3.66608
54.72	3.71438
54.94	2.66659
55.16	8.73354
55.38	3.7765
55.6	7.73833
55.82	1.68449
56.04	6.84777
56.26	0.952984
56.48	7.86577
56.7	7.54925
56.92	0.282547
57.14	5.53956
57.36	3.51193
57.58	5.33273
57.8	4.03876
58.02	1.78118
58.24	2.62878
58.46	1.10694
58.68	3.64877
58.9	20.3198
59.12	10.1011
59.34	4.31876
59.56	8.95457
59.78	42.0402
60	29.25
60.22	6.60235
60.44	9.17486
60.66	5.39315
60.88	3.64643
61.1	0.897387
61.32	3.09343
61.54	10.5148
61.76	2.21965
61.98	4.21481
62.2	9.11323
62.42	5.90615
62.64	0.577737
62.86	0.199481
63.08	3.38853
63.3	15.0814
63.52	39.7125
63.74	9.38372
63.96	4.65861
64.18	9.31179
64.4	8.97051
64.62	8.85691
64.84	9.87308
65.06	10.7923
65.28	14.5014
65.5	3.56699
65.72	1.12753
65.94	14.3804
66.16	7.60675
66.38	8.89481
66.6	3.76257
66.82	7.54577
67.04	13.0316
67.26	15.1163
67.48	25.6734
67.7	13.8597
67.92	8.66743
68.14	3.53326
68.36	0.658583
68.58	2.23249
68.8	5.84089
69.02	3.83677
69.24	3.58829
69.46	2.47434
69.68	3.46246
69.9	6.19192
70.12	5.24427
70.34	9.28468
70.56	16.2641
70.78	8.43818
71	7.58974
71.22	3.95599
71.44	7.13337
71.66	2.21927
71.88	13.2996
72.1	2.30735
72.32	3.28727
72.54	5.17271
72.76	7.22056
72.98	12.0852
73.2	4.81767
73.42	3.77695
73.64	2.41182
73.86	1.68994
74.08	3.35971
74.3	8.58338
74.52	3.92545
74.74	15.4325
74.96	16.5569
75.18	6.50199
75.4	6.05145
75.62	3.03403
75.84	6.08796
76.06	9.07848
76.28	7.06669
76.5	4.04192
76.72	7.79724
76.94	13.7011
77.16	20.3905
77.38	4.56641
77.6	1.28105
77.82	6.6032
78.04	6.62005
78.26	5.69027
78.48	0.767826
78.7	2.83032
78.92	5.88049
79.14	0.921962
79.36	0.170067
79.58	9.91436
79.8	9.95121
80.02	9.04026
80.24	4.74861
80.46	4.68852
80.68	5.73042
80.9	2.74327
81.12	2.63219
81.34	1.50431
81.56	10.278
81.78	4.17989
82	2.03089
82.22	2.91675
82.44	4.82874
82.66	10.6337
82.88	7.73977
83.1	10.8059
83.32	9.20222
83.54	2.31386
83.76	1.53804
83.98	10.7744
84.2	1.85734
84.42	4.11791
84.64	9.13598
84.86	13.3776
85.08	7.46036
85.3	3.33748
85.52	9.14482
85.74	9.53351
85.96	6.44355
86.18	2.18061
86.4	3.96918
86.62	10.6372
86.84	8.06041
87.06	12.7401
87.28	3.29127
87.5	1.08095
87.72	6.9778
87.94	26.0842
88.16	12.1489
88.38	2.14836
88.6	9.3005
88.82	1.67411
89.04	3.09323
89.26	10.4044
89.48	3.77712
89.7	8.75607
89.92	11.4703
