Measurement: Powder, Xray Data XY Processed
Mineral: Dolomite
Rruff sample: R050272
Ideal chemistry: CaMg(CO_3_)_2_
Locality: Eagle mine, Gillman, Colorado, USA
Source: University of Arizona Mineral Museum
Description: Gray-white rhombohedral crystals
Diffraction sample description: Powder
Measured chemistry: (Ca_0.96_Fe^2+^_0.04_)_Σ=1_(Mg_0.63_Mn^2+^_0.21_Fe^2+^_0.16_)_Σ=1_(CO_3_)_2_ ; CO_3_ estimated by difference and stoichiometry
Cell parameters: a: 4.8212(2) b: 4.8212(2) c: 16.091(1) alpha: 90 beta: 90 gamma: 120 volume: 323.91(2) crystal system: hexagonal
x	intensity
5	0
5.22	12.3222
5.44	13.4985
5.66	1.15309
5.88	11.5017
6.1	10.0568
6.32	16.7669
6.54	12.7738
6.76	15.9122
6.98	21.0407
7.2	5.3384
7.42	11.4872
7.64	12.902
7.86	13.8234
8.08	3.93382
8.3	6.6042
8.52	12.2704
8.74	12.7398
8.96	6.97364
9.18	4.17953
9.4	15.5631
9.62	1.34267
9.84	9.47592
10.06	3.67931
10.28	9.32468
10.5	6.09958
10.72	12.4754
10.94	15.6945
11.16	17.6587
11.38	10.4612
11.6	5.63094
11.82	10.6334
12.04	12.8838
12.26	2.93823
12.48	11.1319
12.7	18.2262
12.92	12.4353
13.14	4.85914
13.36	13.6466
13.58	10.6378
13.8	2.70403
14.02	10.1403
14.24	5.93681
14.46	7.91031
14.68	2.1076
14.9	1.38765
15.12	10.9132
15.34	12.8443
15.56	10.7864
15.78	5.39825
16	7.80505
16.22	12.5474
16.44	13.6137
16.66	18.5704
16.88	11.3146
17.1	0.184031
17.32	21.947
17.54	0.431768
17.76	0.536819
17.98	12.7285
18.2	10.0244
18.42	11.7784
18.64	12.6406
18.86	9.81088
19.08	1.22229
19.3	23.7312
19.52	3.67985
19.74	7.88494
19.96	4.2188
20.18	14.0732
20.4	2.91905
20.62	10.0494
20.84	7.98078
21.06	0.292946
21.28	6.59055
21.5	8.72637
21.72	14.1697
21.94	6.27493
22.16	10.2615
22.38	9.79021
22.6	6.6411
22.82	10.3693
23.04	5.12211
23.26	2.82372
23.48	9.68781
23.7	11.0276
23.92	20.0486
24.14	19.6726
24.36	4.94151
24.58	16.0566
24.8	3.40078
25.02	7.07227
25.24	7.77952
25.46	9.42679
25.68	2.4556
25.9	10.7592
26.12	3.24789
26.34	1.87318
26.56	3.03715
26.78	4.58884
27	9.26959
27.22	11.6455
27.44	1.0944
27.66	8.3626
27.88	7.02218
28.1	11.6401
28.32	9.25613
28.54	15.6928
28.76	2.29434
28.98	9.53432
29.2	7.39499
29.42	8.01164
29.64	9.50621
29.86	13.0128
30.08	7.40662
30.3	2.67705
30.52	26.8479
30.74	98.9787
30.96	560.772
31.18	18.3909
31.4	9.4393
31.62	1.64297
31.84	10.4037
32.06	14.8463
32.28	1.28333
32.5	18.8146
32.72	5.3572
32.94	1.90006
33.16	5.13784
33.38	17.1533
33.6	14.7096
33.82	9.02105
34.04	3.86289
34.26	5.93035
34.48	12.0679
34.7	5.32136
34.92	13.418
35.14	11.5663
35.36	14.4251
35.58	7.56165
35.8	5.51852
36.02	0.544771
36.24	0.932781
36.46	4.72646
36.68	6.86321
36.9	15.921
37.12	6.91792
37.34	65.2406
37.56	8.39563
37.78	4.40225
38	4.61765
38.22	16.4672
38.44	3.88148
38.66	9.14266
38.88	15.3331
39.1	19.1204
39.32	9.90728
39.54	8.64844
39.76	21.2004
39.98	19.6781
40.2	1.28418
40.42	7.57271
40.64	11.1426
40.86	14.0872
41.08	129.989
41.3	29.5074
41.52	10.5241
41.74	2.5884
41.96	14.5577
42.18	1.85674
42.4	14.9544
42.62	2.84342
42.84	18.9463
43.06	8.96396
43.28	2.84298
43.5	16.0499
43.72	25.2023
43.94	2.01424
44.16	13.784
44.38	0.58102
44.6	30.4763
44.82	102.777
45.04	37.9162
45.26	16.087
45.48	12.9893
45.7	17.1489
45.92	1.38625
46.14	13.8854
46.36	8.48333
46.58	10.6399
46.8	15.8907
47.02	23.2487
47.24	13.5681
47.46	18.5844
47.68	11.0446
47.9	7.16126
48.12	1.36536
48.34	2.97224
48.56	15.2728
48.78	8.71302
49	6.51047
49.22	29.4768
49.44	22.5639
49.66	4.1928
49.88	16.5186
50.1	19.1483
50.32	110.759
50.54	55.7176
50.76	36.33
50.98	110.597
51.2	30.0432
51.42	11.2551
51.64	13.3703
51.86	13.2494
52.08	11.1946
52.3	15.668
52.52	4.28603
52.74	7.48661
52.96	18.4124
53.18	10.4222
53.4	9.09885
53.62	13.0303
53.84	14.927
54.06	8.06317
54.28	13.2002
54.5	18.4587
54.72	15.1192
54.94	11.6207
55.16	10.7138
55.38	10.8488
55.6	3.87868
55.82	10.8324
56.04	12.8815
56.26	15.0719
56.48	15.9105
56.7	11.0095
56.92	1.81018
57.14	9.53656
57.36	7.36006
57.58	2.73111
57.8	10.1552
58.02	10.6183
58.24	6.25909
58.46	10.6204
58.68	13.0476
58.9	18.8757
59.12	11.9839
59.34	19.0727
59.56	16.7564
59.78	38.4479
60	14.4269
60.22	12.9705
60.44	12.4656
60.66	6.79454
60.88	15.2554
61.1	7.71565
61.32	10.7302
61.54	7.29003
61.76	12.504
61.98	11.8886
62.2	8.5609
62.42	13.6481
62.64	3.68119
62.86	13.6838
63.08	19.2646
63.3	30.782
63.52	19.548
63.74	11.5576
63.96	3.58117
64.18	12.2613
64.4	12.7313
64.62	9.78886
64.84	24.9277
65.06	14.5255
65.28	1.71133
65.5	3.08773
65.72	7.31879
65.94	14.3005
66.16	9.31824
66.38	5.50631
66.6	10.5425
66.82	5.38269
67.04	13.8712
67.26	25.3674
67.48	9.92745
67.7	14.0218
67.92	7.16523
68.14	4.21528
68.36	9.88311
68.58	5.02733
68.8	17.1881
69.02	15.2611
69.24	11.3106
69.46	19.1531
69.68	2.99188
69.9	0.63633
70.12	0.108543
70.34	25.9305
70.56	8.05337
70.78	8.61053
71	16.4778
71.22	4.67522
71.44	4.54943
71.66	3.47965
71.88	10.3653
72.1	11.5482
72.32	12.1013
72.54	5.01494
72.76	10.7832
72.98	0.460781
73.2	20.7821
73.42	13.0702
73.64	9.10445
73.86	2.37468
74.08	2.4921
74.3	11.6646
74.52	12.5129
74.74	16.8022
74.96	2.09956
75.18	6.47194
75.4	1.46244
75.62	1.31973
75.84	2.9181
76.06	8.80096
76.28	0.231194
76.5	3.0613
76.72	19.8539
76.94	21.1798
77.16	18.8569
77.38	5.59688
77.6	5.94551
77.82	1.4175
78.04	5.84596
78.26	6.06875
78.48	9.27287
78.7	9.29095
78.92	8.97736
79.14	12.2952
79.36	16.0114
79.58	18.973
79.8	16.8333
80.02	13.1504
80.24	8.1193
80.46	4.92434
80.68	6.69134
80.9	12.4784
81.12	23.9219
81.34	2.24964
81.56	7.99023
81.78	8.93797
82	19.0381
82.22	25.0721
82.44	15.1985
82.66	6.88752
82.88	5.48382
83.1	8.0215
83.32	4.31645
83.54	27.4373
83.76	0.450863
83.98	15.5469
84.2	4.84265
84.42	12.5976
84.64	12.0538
84.86	17.3879
85.08	14.1495
85.3	5.24775
85.52	1.72944
85.74	9.83352
85.96	2.74735
86.18	21.5316
86.4	17.1731
86.62	10.6921
86.84	10.0763
87.06	3.69587
87.28	11.5083
87.5	5.95621
87.72	24.2368
87.94	16.1483
88.16	6.08241
88.38	5.26223
88.6	8.96495
88.82	20.6233
89.04	24.4039
89.26	10.3056
89.48	9.29557
89.7	1.7438
89.92	7.39983
