Measurement: Powder, Xray Data XY Processed
Mineral: Dravite
Rruff sample: R060534
Ideal chemistry: NaMg_3_Al_6_(Si_6_O_18_)(BO_3_)_3_(OH)_3_OH
Locality: Sri Lanka
Source: Gemological Institute of America
Description: Black trigonal prism
Diffraction sample description: Powder
Measured chemistry: (Na_0.79_Ca_0.21_)(Mg_0.68_Fe^2+^_0.29_Ti_0.02_Al_0.01_)_3_Al_6.00_(BO_3_)_3_(Si_0.95_Al_005_)_6.00_O_18_(OH)_4_
Cell parameters: a: 15.9696(5) b: 15.9696(5) c: 7.2058(6) alpha: 90. beta: 90. gamma: 120. volume: 1591.5(1) crystal system: hexagonal
x	intensity
5	0
5.22	14.5975
5.44	9.0663
5.66	21.6706
5.88	17.7341
6.1	11.0777
6.32	13.0052
6.54	20.6482
6.76	20.4032
6.98	4.40879
7.2	14.2459
7.42	13.5812
7.64	18.8678
7.86	0.381283
8.08	12.2739
8.3	8.95519
8.52	0.690779
8.74	8.7161
8.96	10.2312
9.18	6.14933
9.4	4.41038
9.62	13.0087
9.84	1.35814
10.06	15.7479
10.28	16.7996
10.5	6.15343
10.72	2.13002
10.94	11.1584
11.16	23.8667
11.38	3.45069
11.6	5.30359
11.82	11.8324
12.04	8.64597
12.26	14.6571
12.48	5.62042
12.7	0.301004
12.92	1.91508
13.14	4.93152
13.36	5.82876
13.58	9.58104
13.8	26.475
14.02	23.5239
14.24	0.244785
14.46	5.6229
14.68	0.004919
14.9	3.18215
15.12	3.88991
15.34	13.3559
15.56	5.63088
15.78	1.20939
16	13.8139
16.22	14.1249
16.44	2.39634
16.66	7.0399
16.88	4.29331
17.1	8.6344
17.32	12.5434
17.54	7.29557
17.76	32.9483
17.98	16.7599
18.2	0.657894
18.42	7.40275
18.64	12.846
18.86	13.7082
19.08	3.53495
19.3	74.2546
19.52	13.5365
19.74	11.4148
19.96	2.95073
20.18	4.01778
20.4	10.1906
20.62	4.55609
20.84	7.48654
21.06	183.626
21.28	11.1777
21.5	1.17655
21.72	9.43051
21.94	0.523396
22.16	17.5387
22.38	105.824
22.6	9.33345
22.82	11.4077
23.04	8.28029
23.26	0.001953
23.48	6.21471
23.7	10.3239
23.92	3.40805
24.14	1.4158
24.36	11.3219
24.58	3.03002
24.8	21.9415
25.02	16.7517
25.24	13.585
25.46	31.2331
25.68	123.215
25.9	13.0726
26.12	5.16111
26.34	30.5208
26.56	2.62702
26.78	13.9131
27	1.70759
27.22	14.5283
27.44	7.27947
27.66	11.7783
27.88	6.42907
28.1	2.88667
28.32	9.99372
28.54	6.92868
28.76	8.3912
28.98	9.94051
29.2	6.47161
29.42	9.75715
29.64	42.5038
29.86	9.2227
30.08	66.3867
30.3	75.8003
30.52	13.0774
30.74	11.3885
30.96	18.1261
31.18	16.4936
31.4	11.2985
31.62	1.9045
31.84	7.47472
32.06	8.88498
32.28	4.22114
32.5	9.78845
32.72	4.20335
32.94	4.56535
33.16	0.778288
33.38	6.13375
33.6	3.43251
33.82	12.1416
34.04	10.7792
34.26	27.414
34.48	12.641
34.7	51.6271
34.92	79.288
35.14	22.0807
35.36	9.26994
35.58	6.21427
35.8	8.7767
36.02	12.9392
36.24	14.1833
36.46	6.1072
36.68	5.58881
36.9	1.17424
37.12	2.14664
37.34	16.4106
37.56	28.9328
37.78	37.9572
38	20.0602
38.22	12.8023
38.44	15.7643
38.66	3.90911
38.88	12.5002
39.1	13.6471
39.32	5.95515
39.54	7.93982
39.76	11.1497
39.98	11.1004
40.2	5.86501
40.42	11.7488
40.64	3.03262
40.86	5.81628
41.08	4.40512
41.3	23.0992
41.52	11.7422
41.74	24.2776
41.96	10.38
42.18	2.04509
42.4	33.7052
42.62	17.6574
42.84	18.7217
43.06	2.55282
43.28	3.27186
43.5	15.5657
43.72	1.64423
43.94	30.1418
44.16	39.5972
44.38	87.66
44.6	10.2911
44.82	18.7632
45.04	12.961
45.26	6.76849
45.48	26.6542
45.7	15.171
45.92	6.93879
46.14	5.30903
46.36	11.2112
46.58	16.358
46.8	11.5697
47.02	17.5468
47.24	36.8208
47.46	22.2874
47.68	20.588
47.9	14.8154
48.12	3.36415
48.34	10.4741
48.56	15.4175
48.78	13.4074
49	0.804207
49.22	17.8074
49.44	10.2604
49.66	6.06842
49.88	9.07963
50.1	16.4597
50.32	4.66516
50.54	5.68255
50.76	4.44918
50.98	10.3206
51.2	26.0332
51.42	13.9029
51.64	6.86556
51.86	13.3016
52.08	7.61534
52.3	8.71445
52.52	10.8359
52.74	7.23773
52.96	15.1855
53.18	0.413877
53.4	9.58288
53.62	9.06403
53.84	7.59011
54.06	16.6306
54.28	26.6778
54.5	14.293
54.72	15.1353
54.94	2.23335
55.16	28.6162
55.38	46.7193
55.6	9.43591
55.82	2.8222
56.04	29.2416
56.26	0.921062
56.48	1.8525
56.7	14.7659
56.92	6.60376
57.14	6.70294
57.36	3.82295
57.58	16.082
57.8	53.7904
58.02	11.9006
58.24	5.91702
58.46	15.1137
58.68	12.0296
58.9	10.595
59.12	6.77645
59.34	7.65395
59.56	3.60046
59.78	0.495539
60	5.28663
60.22	13.1457
60.44	9.93027
60.66	15.4706
60.88	9.33473
61.1	2.05304
61.32	18.6691
61.54	32.4904
61.76	20.5516
61.98	9.58029
62.2	13.9016
62.42	5.31998
62.64	13.3745
62.86	5.42526
63.08	10.4583
63.3	11.8337
63.52	3.52737
63.74	24.1039
63.96	25.9757
64.18	23.8895
64.4	8.90565
64.62	9.5229
64.84	10.1072
65.06	14.0574
65.28	10.0645
65.5	1.78579
65.72	14.7229
65.94	3.76821
66.16	17.6423
66.38	36.9873
66.6	24.2136
66.82	2.06581
67.04	16.5939
67.26	1.82108
67.48	6.70792
67.7	3.86218
67.92	19.2043
68.14	13.3438
68.36	10.046
68.58	2.65788
68.8	7.72519
69.02	11.8676
69.24	17.7954
69.46	15.7815
69.68	6.67567
69.9	11.9171
70.12	8.27566
70.34	8.84202
70.56	2.33529
70.78	19.2345
71	20.1151
71.22	15.9157
71.44	8.06159
71.66	5.96808
71.88	32.0673
72.1	22.3095
72.32	8.44718
72.54	8.07891
72.76	5.98956
72.98	10.3576
73.2	17.2643
73.42	2.66985
73.64	5.22898
73.86	16.2229
74.08	11.4146
74.3	28.1447
74.52	9.00545
74.74	9.0155
74.96	5.83494
75.18	13.1787
75.4	20.6421
75.62	3.85192
75.84	5.87481
76.06	2.66636
76.28	13.8484
76.5	11.6523
76.72	17.9785
76.94	22.9778
77.16	6.80949
77.38	1.12984
77.6	28.0764
77.82	9.86493
78.04	18.2875
78.26	10.734
78.48	9.17432
78.7	20.2965
78.92	14.5877
79.14	12.3086
79.36	0.502934
79.58	5.49197
79.8	7.50391
80.02	1.44553
80.24	7.59552
80.46	0.780306
80.68	13.8171
80.9	5.89102
81.12	12.0862
81.34	3.51728
81.56	11.9373
81.78	10.8703
82	10.075
82.22	5.03208
82.44	9.61904
82.66	8.65059
82.88	12.7173
83.1	5.65778
83.32	0.242596
83.54	3.37483
83.76	21.8873
83.98	10.6733
84.2	14.5907
84.42	9.90204
84.64	5.84512
84.86	9.38836
85.08	0.228947
85.3	6.37169
85.52	8.36301
85.74	3.51311
85.96	8.29372
86.18	13.9868
86.4	18.0796
86.62	3.311
86.84	18.3302
87.06	4.37867
87.28	13.7255
87.5	7.63485
87.72	15.7043
87.94	5.84065
88.16	8.5639
88.38	11.3671
88.6	13.2704
88.82	7.11168
89.04	4.31782
89.26	8.75403
89.48	21.5981
89.7	0.353374
89.92	13.2628
