Measurement: Powder, Xray Data XY Processed
Mineral: Duftite
Rruff sample: R040160
Ideal chemistry: Pb^2+^Cu^2+^As^5+^O_4_(OH)
Locality: Tsumeb mine, Tsumeb, Otavi District, Oshikoto, Namibia
Source: University of Arizona Mineral Museum
Description: Green crystalline coating
Diffraction sample description: Powder, using Mo radiation
Measured chemistry: (Pb_0.96_Zn_0.04_)_Î£=1_Cu_1.00_As_1.00_O_4_(OH); OH estimated by charge balance
Cell parameters: a: 7.401(2) b: 9.435(2) c: 5.923(1) alpha: 90 beta: 90 gamma: 90 volume: 413.6(1) crystal system: orthorhombic
x	intensity
6.61	0
6.73	4.25583
6.85	6.56955
6.97	14.5583
7.09	15.5472
7.21	5.76389
7.33	9.17557
7.45	13.6547
7.57	17.61
7.69	21.2547
7.81	14.9131
7.93	36.3841
8.05	65.9405
8.17	59.3695
8.29	45.4065
8.41	32.9341
8.53	39.1584
8.65	45.4281
8.77	32.5876
8.89	14.5973
9.01	9.26328
9.13	8.54303
9.25	19.2651
9.37	19.0102
9.49	33.9551
9.61	81.5251
9.73	120.766
9.85	133.608
9.97	109.447
10.09	62.2418
10.21	33.9813
10.33	29.4279
10.45	26.9628
10.57	12.5617
10.69	22.7886
10.81	31.7055
10.93	52.4084
11.05	57.7073
11.17	45.0523
11.29	20.3398
11.41	12.9993
11.53	24.3551
11.65	27.1274
11.77	28.7806
11.89	39.9488
12.01	22.7664
12.13	20.7399
12.25	33.5804
12.37	35.4252
12.49	25.5164
12.61	55.3041
12.73	115.56
12.85	185.584
12.97	336.367
13.09	362.814
13.21	162.595
13.33	39.1578
13.45	27.0391
13.57	41.2213
13.69	104.88
13.81	215.488
13.93	383.18
14.05	423.018
14.17	316.519
14.29	138.378
14.41	48.5769
14.53	20.8085
14.65	9.47848
14.77	9.60745
14.89	8.63818
15.01	0.143433
15.13	14.3226
15.25	89.1974
15.37	237.606
15.49	384.447
15.61	475.92
15.73	376.602
15.85	169.779
15.97	51.0856
16.09	34.8222
16.21	39.7701
16.33	30.0877
16.45	15.0842
16.57	3.56189
16.69	4.44983
16.81	2.86948
16.93	18.0295
17.05	34.8477
17.17	19.7932
17.29	3.14981
17.41	6.99509
17.53	10.8243
17.65	5.06216
17.77	7.52051
17.89	15.4474
18.01	35.4326
18.13	63.542
18.25	66.5283
18.37	52.8097
18.49	28.8411
18.61	12.4675
18.73	10.454
18.85	4.68896
18.97	0.019409
19.09	5.05127
19.21	18.8121
19.33	37.9418
19.45	52.8524
19.57	65.3392
19.69	77.9546
19.81	68.0791
19.93	33.9412
20.05	10.6676
20.17	4.09171
20.29	2.08957
20.41	3.54544
20.53	11.0651
20.65	4.04654
20.77	9.47382
20.89	16.154
21.01	9.90663
21.13	7.64427
21.25	0.633392
21.37	8.67612
21.49	15.4885
21.61	23.1178
21.73	37.2084
21.85	65.4054
21.97	128.007
22.09	166.578
22.21	139.115
22.33	79.2918
22.45	34.7505
22.57	17.6092
22.69	23.97
22.81	9.16522
22.93	9.85887
23.05	13.9493
23.17	35.273
23.29	74.6046
23.41	95.4744
23.53	111.286
23.65	94.2408
23.77	53.5346
23.89	22.0515
24.01	0.178879
24.13	2.43713
24.25	10.0225
24.37	1.24301
24.49	6.22432
24.61	6.85245
24.73	15.2189
24.85	50.2447
24.97	97.1962
25.09	152.566
25.21	168.213
25.33	125.752
25.45	53.7137
25.57	16.8616
25.69	14.2735
25.81	42.3993
25.93	66.3656
26.05	90.7816
26.17	100.445
26.29	94.7185
26.41	73.0337
26.53	48.1487
26.65	15.4395
26.77	4.22649
26.89	5.90779
27.01	13.5367
27.13	23.1976
27.25	32.4758
27.37	32.1158
27.49	30.2452
27.61	31.3635
27.73	38.9412
27.85	57.3053
27.97	52.4438
28.09	45.5251
28.21	32.1199
28.33	26.0386
28.45	15.8827
28.57	3.68195
28.69	6.92708
28.81	8.05417
28.93	40.4782
29.05	64.9092
29.17	70.7854
29.29	61.2408
29.41	58.2985
29.53	50.3259
29.65	39.0074
29.77	33.3419
29.89	18.693
30.01	6.37466
30.13	1.12538
30.25	8.68675
30.37	4.44426
30.49	15.085
30.61	9.90301
30.73	23.6471
30.85	12.8372
30.97	10.6492
31.09	25.6945
31.21	41.4366
31.33	36.9505
31.45	30.2336
31.57	15.3289
31.69	0.939041
31.81	4.90343
31.93	2.10271
32.05	2.01891
32.17	0.777069
32.29	2.07034
32.41	3.46056
32.53	7.58336
32.65	3.05774
32.77	3.36128
32.89	2.40988
33.01	3.44037
33.13	14.7697
33.25	10.8474
33.37	16.8153
33.49	23.9891
33.61	23.3145
33.73	26.7366
33.85	24.6577
33.97	11.7088
34.09	9.88177
34.21	17.1206
34.33	13.3822
34.45	11.3776
34.57	22.9081
34.69	20.3685
34.81	18.8687
34.93	18.484
35.05	30.4896
35.17	35.325
35.29	35.4711
35.41	36.3081
35.53	32.2296
35.65	24.1084
35.77	13.6791
35.89	8.91161
36.01	11.6309
36.13	8.2025
36.25	0.941864
36.37	2.71481
36.49	7.88734
36.61	18.8174
36.73	38.001
36.85	43.5725
36.97	59.7073
37.09	63.5254
37.21	61.0295
37.33	51.456
37.45	44.3086
37.57	36.8655
37.69	30.3124
37.81	26.7427
37.93	30.3675
38.05	15.4487
38.17	0.183838
38.29	9.9428
38.41	11.5184
38.53	3.71956
38.65	7.13002
38.77	1.01276
38.89	1.5266
39.01	3.28967
39.13	8.20735
39.25	19.35
39.37	14.1884
39.49	18.8367
39.61	21.0858
39.73	15.626
39.85	16.8478
39.97	17.7482
40.09	16.1172
40.21	6.50339
40.33	12.5058
40.45	18.5955
40.57	14.4186
40.69	16.5506
40.81	11.6171
40.93	7.24458
41.05	10.6284
41.17	7.92778
41.29	7.43466
41.41	11.5502
41.53	19.1658
41.65	19.0352
41.77	17.4694
41.89	13.646
42.01	5.94545
42.13	11.7023
42.25	9.66347
42.37	0.482803
42.49	4.57825
42.61	11.6566
42.73	11.1989
42.85	9.66008
42.97	8.84999
43.09	12.6169
43.21	10.6799
43.33	19.1442
43.45	22.7205
43.57	15.341
43.69	12.5267
43.81	16.1709
43.93	5.14601
44.05	16.0512
44.17	19.058
44.29	6.04088
44.41	6.62929
44.53	14.7756
44.65	14.2918
44.77	3.38611
44.89	1.4913
45.01	11.2492
45.13	7.43941
45.25	3.688
