Measurement: Powder, Xray Data XY Processed
Mineral: Dundasite
Rruff sample: R060760
Ideal chemistry: Pb^2+^Al_2_(CO_3_)_2_(OH)_4_H_2_O
Locality: Daoping mine, Guangxi, China
Source: Michael Scott
Description: Spherical aggregates of pale green acicular crystals, associated with colorless cerussite, anglesite, and blue linarite R120094.
Diffraction sample description: Powder, using Mo radiation
Cell parameters: a: 9.084(7) b: 16.504(8) c: 5.727(5) alpha: 90 beta: 90 gamma: 90 volume: 858.6(7) crystal system: orthorhombic
x	intensity
8.47	0
8.62	39.0065
8.77	164.308
8.92	203.165
9.07	81.3282
9.22	43.6868
9.37	49.0216
9.52	132.566
9.67	214.482
9.82	66.2787
9.97	0.166168
10.12	10.1753
10.27	2.84857
10.42	33.2529
10.57	53.3046
10.72	73.296
10.87	25.2304
11.02	6.32794
11.17	142.927
11.32	317.984
11.47	180.8
11.62	88.7055
11.77	58.5835
11.92	13.4902
12.07	105.694
12.22	305.044
12.37	273.967
12.52	266.309
12.67	287.071
12.82	175.853
12.97	53.8139
13.12	58.3014
13.27	84.8068
13.42	140.202
13.57	273.751
13.72	225.564
13.87	71.3351
14.02	3.24634
14.17	18.2206
14.32	4.84695
14.47	24.1702
14.62	44.2061
14.77	73.1679
14.92	90.7719
15.07	170.359
15.22	291.904
15.37	307.737
15.52	196.427
15.67	76.9098
15.82	24.2687
15.97	3.70328
16.12	45.8907
16.27	58.0558
16.42	36.2502
16.57	17.782
16.72	13.9885
16.87	59.6865
17.02	156.971
17.17	161.6
17.32	95.6988
17.47	30.9938
17.62	20.5957
17.77	33.267
17.92	68.3657
18.07	90.52
18.22	45.9132
18.37	21.2979
18.52	28.6582
18.67	45.6527
18.82	65.9238
18.97	74.8826
19.12	49.311
19.27	22.0251
19.42	44.7608
19.57	137.278
19.72	315.664
19.87	411.508
20.02	355.856
20.17	254.573
20.32	117.096
20.47	41.6006
20.62	49.9621
20.77	83.9864
20.92	70.0686
21.07	34.5987
21.22	2.92245
21.37	0.091064
21.52	0.668762
21.67	0.11734
21.82	9.33047
21.97	1.59271
22.12	8.254
22.27	0.552368
22.42	28.817
22.57	46.9214
22.72	101.712
22.87	127.369
23.02	103.445
23.17	116.581
23.32	134.669
23.47	146.282
23.62	136.212
23.77	55.4819
23.92	60.3488
24.07	68.0046
24.22	66.749
24.37	30.1035
24.52	10.4149
24.67	5.88779
24.82	21.236
24.97	17.9515
25.12	16.3253
25.27	43.1036
25.42	56.3221
25.57	47.4242
25.72	32.4588
25.87	5.19641
26.02	0.96048
26.17	8.41809
26.32	12.6435
26.47	7.76566
26.62	5.89313
26.77	31.3578
26.92	43.6283
27.07	29.1015
27.22	23.2371
27.37	32.4719
27.52	54.3396
27.67	33.7438
27.82	21.8785
27.97	15.5212
28.12	16.0274
28.27	3.03485
28.42	5.99381
28.57	43.4562
28.72	37.6839
28.87	17.2704
29.02	2.53781
29.17	1.32559
29.32	13.9308
29.47	32.9533
29.62	34.7304
29.77	35.5307
29.92	57.1938
30.07	72.7125
30.22	47.2503
30.37	22.0852
30.52	6.74933
30.67	20.4376
30.82	3.91278
30.97	14.8117
31.12	7.96439
31.27	10.2593
31.42	23.2113
31.57	4.39417
31.72	2.68912
31.87	5.12592
32.02	9.25711
32.17	36.8453
32.32	47.7008
32.47	31.2842
32.62	9.04126
32.77	1.36057
32.92	0.13028
33.07	1.22522
33.22	6.00818
33.37	9.68118
33.52	14.0602
33.67	16.6128
33.82	16.3499
33.97	8.31091
34.12	3.11679
34.27	6.5918
34.42	22.7019
34.57	30.5835
34.72	29.6298
34.87	26.8443
35.02	17.9691
35.17	0.436615
35.32	2.71756
35.47	1.44788
35.62	7.36523
35.77	2.98764
35.92	15.3212
36.07	18.1664
36.22	10.1186
36.37	8.36056
36.52	6.3606
36.67	4.23923
36.82	15.65
36.97	33.5713
37.12	27.6288
37.27	27.8431
37.42	18.4979
37.57	21.0175
37.72	29.1025
37.87	31.0796
38.02	30.0333
38.17	18.5467
38.32	9.20725
38.47	19.9718
38.62	25.1054
38.77	30.2032
38.92	36.0533
39.07	36.7856
39.22	40.3192
39.37	42.0306
39.52	24.7552
39.67	17.9486
39.82	9.48715
39.97	17.7637
40.12	8.96027
40.27	12.7318
40.42	9.03406
40.57	3.01935
40.72	1.12973
40.87	4.40796
41.02	4.56632
41.17	0.695007
41.32	6.31683
41.47	11.5697
41.62	12.6289
41.77	13.2401
41.92	15.749
42.07	12.9402
42.22	8.82785
42.37	6.56326
42.52	12.971
42.67	12.7878
42.82	17.5161
42.97	21.768
43.12	30.2355
43.27	16.5667
43.42	18.1099
43.57	18.948
43.72	15.3507
43.87	22.0439
44.02	15.166
44.17	7.93991
44.32	1.18048
44.47	5.62524
44.62	3.56665
44.77	3.28204
44.92	3.01163
45.07	1.42761
45.22	3.68924
45.37	5.41354
45.52	1.93161
45.67	8.38571
45.82	13.279
45.97	14.7928
46.12	26.875
46.27	5.54849
46.42	18.1831
46.57	20.9651
46.72	13.8153
46.87	7.67935
47.02	1.59247
47.17	0.410583
47.32	5.06769
47.47	10.8
47.62	24.1783
47.77	16.5257
47.92	19.9987
48.07	13.2906
48.22	16.4305
48.37	18.9954
48.52	9.41626
48.67	17.3231
48.82	14.8584
48.97	20.6135
49.12	20.7788
49.27	20.6632
49.42	19.0198
49.57	15.9241
49.72	10.0166
49.87	8.63373
50.02	0.786743
50.17	4.80362
50.32	19.5783
50.47	11.0442
50.62	19.9194
50.77	25.0075
50.92	14.3861
51.07	11.5726
51.22	15.6766
51.37	6.71741
51.52	9.97028
51.67	5.73425
51.82	4.13348
51.97	4.50333
52.12	9.1698
52.27	0.633698
52.42	21.4512
52.57	12.8336
52.72	11.3143
52.87	12.0217
53.02	10.3872
53.17	2.75854
53.32	5.32361
53.47	3.79825
53.62	2.10919
53.77	4.02005
53.92	8.73438
54.07	18.892
54.22	7.97876
54.37	4.69888
54.52	2.03116
54.67	7.59634
54.82	9.34833
54.97	0.75351
55.12	4.72626
55.27	11.5959
55.42	9.32336
55.57	13.6729
55.72	29.0497
55.87	11.408
56.02	3.44913
56.17	13.9723
56.32	12.4154
56.47	13.6796
56.62	10.2269
56.77	9.93997
56.92	5.74225
57.07	12.2867
57.22	4.0527
57.37	0.531555
57.52	7.2341
57.67	7.0622
57.82	1.91022
57.97	4.81705
58.12	15.4312
58.27	11.4369
58.42	17.466
58.57	16.4115
58.72	8.59378
58.87	6.30212
59.02	16.7266
59.17	27.5119
59.32	8.17859
59.47	8.07483
59.62	0.441406
59.77	13.2869
59.92	28.0088
60.07	15.0229
60.22	18.5624
60.37	7.13831
60.52	16.0822
60.67	20.2833
60.82	7.39273
60.97	7.02402
61.12	15.1195
61.27	9.28195
61.42	0.549011
61.57	12.8412
61.72	11.0924
61.87	8.76401
62.02	1.63965
62.17	9.52048
62.32	16.2557
62.47	17.0587
62.62	8.82227
62.77	10.5075
62.92	5.59189
63.07	16.7997
63.22	17.5259
63.37	11.4884
63.52	6.28857
63.67	9.08575
63.82	12.2722
63.97	9.7999
64.12	9.96323
64.27	10.8277
64.42	16.3756
64.57	16.0196
64.72	7.20279
64.87	0.180847
65.02	15.1785
