Measurement: Powder, Xray Data XY Processed
Mineral: Dyscrasite
Rruff sample: R061043
Ideal chemistry: Ag_3.2_Sb_0.8_
Locality: Uranium mine no. 21, Pribram, Czech Republic
Source: Michael Scott
Description: Metallic silver-white tarnished striated prismatic single crystals
Diffraction sample description: Powder
Cell parameters: a: 2.9982(3) b: 5.1964(5) c: 4.8133(3) alpha: 90 beta: 90 gamma: 90 volume: 74.992(8) crystal system: orthorhombic
x	intensity
5	0
5.22	0.864738
5.44	10.7078
5.66	1.16436
5.88	2.07736
6.1	7.36848
6.32	2.39646
6.54	10.7775
6.76	9.79443
6.98	3.86576
7.2	11.0536
7.42	4.1893
7.64	8.33164
7.86	4.40331
8.08	6.206
8.3	12.4036
8.52	13.6048
8.74	8.89822
8.96	13.2995
9.18	7.86871
9.4	0.299372
9.62	3.76089
9.84	0.752513
10.06	4.74493
10.28	5.28141
10.5	6.66877
10.72	0.85315
10.94	9.9669
11.16	3.12688
11.38	4.16699
11.6	2.02485
11.82	2.0488
12.04	2.00611
12.26	2.96255
12.48	5.86752
12.7	1.63054
12.92	7.88468
13.14	0.04405
13.36	1.96396
13.58	3.85091
13.8	1.1078
14.02	6.33393
14.24	5.41495
14.46	3.45442
14.68	7.54225
14.9	1.43783
15.12	8.63568
15.34	0.44044
15.56	2.3972
15.78	6.40719
16	6.46479
16.22	3.41719
16.44	3.27702
16.66	3.35257
16.88	3.42319
17.1	0.458435
17.32	4.5755
17.54	8.8695
17.76	5.96551
17.98	5.00832
18.2	5.99135
18.42	6.94726
18.64	3.86127
18.86	0.800027
19.08	5.79279
19.3	0.736282
19.52	5.71226
19.74	4.95227
19.96	5.73166
20.18	7.6391
20.4	4.7796
20.62	3.92668
20.84	4.86532
21.06	4.79856
21.28	4.86776
21.5	11.8028
21.72	1.85136
21.94	3.74684
22.16	4.51943
22.38	3.42087
22.6	3.4265
22.82	3.26041
23.04	3.05075
23.26	7.12266
23.48	0.067926
23.7	3.09698
23.92	7.00224
24.14	3.81799
24.36	1.70352
24.58	1.52126
24.8	1.44888
25.02	5.28795
25.24	7.2336
25.46	5.54306
25.68	1.4282
25.9	1.43384
26.12	8.32291
26.34	10.5791
26.56	0.25179
26.78	5.01825
27	4.0474
27.22	1.21244
27.44	2.51901
27.66	6.70193
27.88	0.667389
28.1	6.74802
28.32	3.85878
28.54	1.90269
28.76	2.77314
28.98	4.88291
29.2	2.82616
29.42	8.74746
29.64	0.818399
29.86	1.77945
30.08	5.51774
30.3	3.48068
30.52	2.55885
30.74	5.46713
30.96	2.73104
31.18	1.4969
31.4	4.39762
31.62	2.4119
31.84	8.31767
32.06	1.6646
32.28	7.25987
32.5	0.905728
32.72	2.64263
32.94	3.01729
33.16	4.51494
33.38	2.35505
33.6	5.07339
33.82	7.56387
34.04	6.85424
34.26	13.4876
34.48	55.9992
34.7	62.7692
34.92	14.9471
35.14	12.4209
35.36	6.69775
35.58	14.0163
35.8	2.78791
36.02	0.526041
36.24	3.05568
36.46	3.47325
36.68	2.55845
36.9	18.6509
37.12	44.6581
37.34	158.249
37.56	152.726
37.78	33.0528
38	10.0327
38.22	4.3557
38.44	2.14207
38.66	9.46617
38.88	15.3376
39.1	70.5212
39.32	277.091
39.54	365.853
39.76	136.149
39.98	46.5579
40.2	18.0732
40.42	1.96015
40.64	11.6107
40.86	4.87707
41.08	5.19769
41.3	3.31713
41.52	0.586646
41.74	12.1199
41.96	11.7826
42.18	7.53029
42.4	3.57091
42.62	4.46583
42.84	0.263142
43.06	2.19884
43.28	0.301741
43.5	5.44325
43.72	2.65592
43.94	1.62876
44.16	2.83739
44.38	9.81444
44.6	3.93294
44.82	4.08026
45.04	1.22749
45.26	3.24726
45.48	1.40783
45.7	5.38161
45.92	3.44003
46.14	5.33691
46.36	9.33207
46.58	5.37245
46.8	0.321892
47.02	3.33618
47.24	1.30155
47.46	2.22547
47.68	4.42751
47.9	6.34667
48.12	2.444
48.34	2.59138
48.56	2.71167
48.78	0.210722
49	11.6149
49.22	8.58879
49.44	2.52343
49.66	6.57156
49.88	3.37601
50.1	2.8915
50.32	0.581268
50.54	5.2848
50.76	6.79864
50.98	0.559015
51.2	5.15632
51.42	15.974
51.64	36.1054
51.86	41.8763
52.08	33.1021
52.3	9.36445
52.52	8.54992
52.74	6.85943
52.96	2.28785
53.18	1.72968
53.4	5.02424
53.62	5.31093
53.84	2.73875
54.06	3.7296
54.28	5.99638
54.5	7.79641
54.72	0.849344
54.94	1.94695
55.16	5.94159
55.38	6.81904
55.6	3.84265
55.82	4.87304
56.04	2.87925
56.26	4.86229
56.48	1.87446
56.7	2.87409
56.92	4.90265
57.14	3.89253
57.36	4.96395
57.58	2.06784
57.8	1.89226
58.02	3.99135
58.24	7.94678
58.46	2.93102
58.68	1.98236
58.9	3.95519
59.12	1.66589
59.34	3.5207
59.56	3.9511
59.78	5.78798
60	1.42393
60.22	3.11356
60.44	6.74414
60.66	4.40573
60.88	0.845183
61.1	9.37711
61.32	9.9828
61.54	5.68594
61.76	25.5616
61.98	25.0391
62.2	20.8907
62.42	5.07685
62.64	9.33216
62.86	5.73225
63.08	2.15446
63.3	6.63084
63.52	0.16571
63.74	3.52569
63.96	3.97477
64.18	4.02886
64.4	2.28251
64.62	4.56316
64.84	5.57581
65.06	0.636984
65.28	5.51778
65.5	4.26138
65.72	2.20368
65.94	7.95902
66.16	1.02915
66.38	8.05166
66.6	1.6883
66.82	9.2816
67.04	0.684789
67.26	6.20071
67.48	1.50634
67.7	1.95738
67.92	3.49967
68.14	6.00388
68.36	12.6167
68.58	34.0564
68.8	47.9688
69.02	47.4282
69.24	18.7242
69.46	21.0595
69.68	2.60093
69.9	2.15869
70.12	0.865738
70.34	5.57907
70.56	7.16212
70.78	5.71541
71	4.13994
71.22	4.09593
71.44	5.8696
71.66	3.86243
71.88	5.73311
72.1	1.56703
72.32	1.50995
72.54	7.52912
72.76	4.74856
72.98	2.81009
73.2	6.74893
73.42	5.55399
73.64	3.35788
73.86	3.11884
74.08	8.9141
74.3	13.8162
74.52	13.7522
74.74	19.4352
74.96	9.27909
75.18	19.021
75.4	10.0809
75.62	9.38745
75.84	29.2014
76.06	12.795
76.28	8.94546
76.5	5.37756
76.72	7.70737
76.94	3.14474
77.16	1.48833
77.38	0.488036
77.6	5.7278
77.82	0.401011
78.04	3.77039
78.26	9.93765
78.48	3.44423
78.7	4.4166
78.92	2.07298
79.14	4.84243
79.36	12.565
79.58	13.4584
79.8	22.5135
80.02	14.2719
80.24	2.38358
80.46	4.71609
80.68	7.95684
80.9	3.27724
81.12	1.50411
81.34	5.75663
81.56	3.27463
81.78	3.38205
82	7.75057
82.22	5.78961
82.44	1.83848
82.66	2.00604
82.88	0.784555
83.1	1.37078
83.32	3.3708
83.54	1.19798
83.76	1.00975
83.98	9.59237
84.2	0.358227
84.42	1.03881
84.64	12.0515
84.86	7.86429
85.08	5.93651
85.3	0.073858
85.52	5.26342
85.74	0.544325
85.96	4.77747
86.18	1.03042
86.4	6.16765
86.62	1.41944
86.84	0.412862
87.06	3.72817
87.28	0.805885
87.5	2.95417
87.72	1.06409
87.94	10.8406
88.16	2.76464
88.38	1.66488
88.6	2.42963
88.82	2.00573
89.04	0.843317
89.26	2.38638
89.48	6.70086
89.7	5.59227
89.92	1.17194
