Measurement: Powder, Xray Data XY Processed
Mineral: Edenite
Rruff sample: R060029
Ideal chemistry: NaCa_2_Mg_5_(Si_7_Al)O_22_(OH)_2_
Locality: Renfrew County, Ontario, Canada
Source: University of Arizona Mineral Museum
Description: Black prismatic
Diffraction sample description: Powder
Measured chemistry: (Na_0.62_K_0.34_[box]_0.04_)(Ca_0.86_Na_0.14_)_2_(Mg_0.57_Fe^2+^_0.30_Fe^3+^_0.07_Al_0.05_Ti_0.01_Mn_0.01_)_5_(Si_6.61_Al_1.39_)O_22_((OH)_0.69_F_0.31_)_2_
Cell parameters: a: 9.9067(3) b: 18.079(2) c: 5.3091(5) alpha: 90 beta: 105.077(5) gamma: 90 volume: 918.14(8) crystal system: monoclinic
x	intensity
5	0
5.22	0.598
5.44	7.874
5.66	3.443
5.88	9.44
6.1	9.092
6.32	5.779
6.54	6.041
6.76	4.673
6.98	14.97
7.2	14.474
7.42	14.414
7.64	20.837
7.86	6.019
8.08	3.607
8.3	23.694
8.52	7.611
8.74	3.253
8.96	12.525
9.18	5.231
9.4	0.017
9.62	10.545
9.84	35.474
10.06	6.49
10.28	5.061
10.5	287.125
10.72	11.727
10.94	9.114
11.16	16.136
11.38	11.756
11.6	16.947
11.82	15.483
12.04	8.446
12.26	12.895
12.48	9.391
12.7	10.648
12.92	12.022
13.14	9.226
13.36	13.654
13.58	19.269
13.8	5.979
14.02	5.592
14.24	8.804
14.46	2.169
14.68	6.848
14.9	5.942
15.12	11.978
15.34	5.986
15.56	10.964
15.78	19.616
16	5.411
16.22	10.643
16.44	14.465
16.66	10.179
16.88	14.597
17.1	15.468
17.32	9.464
17.54	12.19
17.76	6.664
17.98	7.35
18.2	4.235
18.42	24.061
18.64	25.499
18.86	4.17
19.08	6.444
19.3	9.407
19.52	6.157
19.74	19.146
19.96	11.248
20.18	16.511
20.4	8.527
20.62	13.927
20.84	0.676
21.06	13.565
21.28	8.74
21.5	6.532
21.72	0.315
21.94	17.203
22.16	13.205
22.38	13.715
22.6	9.69
22.82	1.789
23.04	6.947
23.26	14.972
23.48	17.032
23.7	10.098
23.92	15.344
24.14	15.965
24.36	10.626
24.58	4.682
24.8	9.704
25.02	4.491
25.24	0.498
25.46	9.53
25.68	15.955
25.9	6.503
26.12	12.998
26.34	156.264
26.56	12.154
26.78	12.267
27	8.165
27.22	46.499
27.44	0.517
27.66	4.019
27.88	7.233
28.1	0.423
28.32	3.485
28.54	168.708
28.76	17.595
28.98	9.718
29.2	3.005
29.42	10.032
29.64	9.455
29.86	9.707
30.08	5.774
30.3	29.053
30.52	11.04
30.74	2.061
30.96	9.07
31.18	0.201
31.4	21.365
31.62	6.173
31.84	24.948
32.06	26.176
32.28	23.858
32.5	21.332
32.72	4.729
32.94	8.671
33.16	71.842
33.38	7.639
33.6	10.979
33.82	9.374
34.04	9.438
34.26	13.517
34.48	17.011
34.7	17.952
34.92	1.352
35.14	27.628
35.36	10.38
35.58	12.614
35.8	16.186
36.02	4.34
36.24	13.098
36.46	14.266
36.68	21.175
36.9	3.926
37.12	0.797
37.34	7.225
37.56	26.487
37.78	9.583
38	6.241
38.22	5.701
38.44	50.674
38.66	12.8
38.88	4.624
39.1	19.949
39.32	25.279
39.54	11.409
39.76	1.583
39.98	9.461
40.2	6.087
40.42	18.136
40.64	16.1
40.86	10.111
41.08	6.234
41.3	5.291
41.52	16.99
41.74	66.019
41.96	6.503
42.18	6.681
42.4	16.078
42.62	10.294
42.84	11.271
43.06	14.14
43.28	20.013
43.5	5.814
43.72	4.353
43.94	13.563
44.16	9.841
44.38	16.57
44.6	32.359
44.82	16.212
45.04	16.464
45.26	9.72
45.48	4.335
45.7	9.657
45.92	13.99
46.14	19.259
46.36	10.548
46.58	2.129
46.8	10.908
47.02	24.944
47.24	12.808
47.46	3.479
47.68	11.251
47.9	2.704
48.12	4.649
48.34	11.308
48.56	8.589
48.78	3.618
49	3.212
49.22	5.36
49.44	5.594
49.66	0.631
49.88	3.952
50.1	10.163
50.32	11.3
50.54	3.509
50.76	2.328
50.98	6.138
51.2	6.313
51.42	11.251
51.64	6.113
51.86	16.813
52.08	19.911
52.3	7.58
52.52	8.705
52.74	13.64
52.96	24.557
53.18	2.449
53.4	19.319
53.62	18.21
53.84	17.068
54.06	8.454
54.28	12.821
54.5	3.739
54.72	15.757
54.94	2.396
55.16	8.785
55.38	17.785
55.6	64.882
55.82	10.581
56.04	8.436
56.26	12.764
56.48	15.152
56.7	13.853
56.92	22.528
57.14	9.224
57.36	17.183
57.58	9.844
57.8	16.522
58.02	19.684
58.24	23.715
58.46	2.392
58.68	16.021
58.9	9.889
59.12	4.821
59.34	18.81
59.56	10.719
59.78	19.343
60	10.153
60.22	9.413
60.44	4.416
60.66	3.432
60.88	16.225
61.1	7.81
61.32	13.427
61.54	34.863
61.76	15.535
61.98	20.372
62.2	17.191
62.42	3.02
62.64	8.395
62.86	5.063
63.08	11.793
63.3	8.767
63.52	23.235
63.74	1.578
63.96	18.167
64.18	1.289
64.4	69.081
64.62	34.875
64.84	29.324
65.06	7.091
65.28	2.442
65.5	6.844
65.72	11.056
65.94	14.505
66.16	15.542
66.38	9.993
66.6	24.004
66.82	7.331
67.04	2.193
67.26	3.744
67.48	14.217
67.7	7.029
67.92	13.155
68.14	10.848
68.36	10.059
68.58	15.398
68.8	24.679
69.02	5.223
69.24	5.032
69.46	6.801
69.68	10.39
69.9	5.418
70.12	2.111
70.34	16.79
70.56	3.686
70.78	0.248
71	12.202
71.22	7.963
71.44	4.165
71.66	11.155
71.88	17.413
72.1	12.721
72.32	3.106
72.54	1.456
72.76	12.646
72.98	17.917
73.2	12.828
73.42	2.967
73.64	6.868
73.86	11.111
74.08	12.91
74.3	2.329
74.52	24.907
74.74	0.565
74.96	19.104
75.18	5.299
75.4	15.652
75.62	14.998
75.84	7.432
76.06	17.584
76.28	20.181
76.5	2.986
76.72	4.617
76.94	22.277
77.16	12.356
77.38	11.019
77.6	3.977
77.82	8.621
78.04	5.426
78.26	23.786
78.48	10.578
78.7	21.257
78.92	6.684
79.14	14.971
79.36	18.346
79.58	18.289
79.8	13.665
80.02	9.689
80.24	21.708
80.46	4.494
80.68	6.657
80.9	0.217
81.12	16.555
81.34	1.295
81.56	9.587
81.78	18.274
82	6.711
82.22	7.466
82.44	18.404
82.66	6.12
82.88	11.026
83.1	10.969
83.32	0.85
83.54	12.034
83.76	9.335
83.98	6.348
84.2	14.499
84.42	9.398
84.64	1.064
84.86	7.916
85.08	7.36
85.3	12.392
85.52	19.296
85.74	9.863
85.96	13.93
86.18	15.386
86.4	4.06
86.62	3.646
86.84	12.553
87.06	15.816
87.28	13.274
87.5	7.541
87.72	6.373
87.94	19.347
88.16	7.053
88.38	5.322
88.6	22.247
88.82	6.13
89.04	8.253
89.26	2.595
89.48	7.52
89.7	12.568
89.92	20.031
