Measurement: Powder, Xray Data XY Processed
Mineral: Elbaite
Rruff sample: R060560
Ideal chemistry: Na(Al_1.5_Li_1.5_)Al_6_(Si_6_O_18_)(BO_3_)_3_(OH)_3_OH
Locality: California, USA
Source: Gemological Institute of America
Description: Pink fragment
Diffraction sample description: Powder
Measured chemistry: (Na_0.56_Ca_0.12_[box]_0.32_)(Al_1.60_Li_1.40_)Al_6_(BO_3_)_3_[Si_6_O_18_](OH)_4_
Cell parameters: a: 15.8322(2) b: 15.8322(2) c: 7.0994(2) alpha: 90. beta: 90. gamma: 120. volume: 1541.12(4) crystal system: hexagonal
x	intensity
5	0
5.22	1.96525
5.44	4.27332
5.66	4.38075
5.88	8.82066
6.1	12.6258
6.32	18.3949
6.54	7.90721
6.76	16.0298
6.98	1.84663
7.2	1.67707
7.42	3.43629
7.64	0.551388
7.86	3.46137
8.08	7.60093
8.3	8.22672
8.52	9.22805
8.74	7.03564
8.96	4.69537
9.18	9.14286
9.4	14.9135
9.62	1.90875
9.84	8.37731
10.06	11.4212
10.28	6.73049
10.5	4.77624
10.72	3.03827
10.94	12.1617
11.16	16.4469
11.38	5.47728
11.6	8.61677
11.82	2.56653
12.04	4.39696
12.26	6.39866
12.48	1.59407
12.7	5.61542
12.92	5.65706
13.14	6.67261
13.36	1.82981
13.58	5.9311
13.8	8.17661
14.02	30.0935
14.24	15.1688
14.46	8.09572
14.68	3.08855
14.9	0.856361
15.12	3.24874
15.34	8.54676
15.56	3.85794
15.78	1.20076
16	4.03011
16.22	4.1643
16.44	6.48508
16.66	2.52007
16.88	9.52909
17.1	2.49469
17.32	1.4638
17.54	0.431545
17.76	4.28018
17.98	40.2444
18.2	8.88307
18.42	8.81837
18.64	0.754283
18.86	12.0617
19.08	0.929709
19.3	1.12592
19.52	46.3295
19.74	5.35902
19.96	5.42212
20.18	2.30072
20.4	2.04024
20.62	4.95911
20.84	3.08445
21.06	10.9569
21.28	287.332
21.5	13.2804
21.72	4.20066
21.94	3.31745
22.16	4.31685
22.38	11.418
22.6	53.7844
22.82	5.98303
23.04	6.02988
23.26	3.23362
23.48	7.57555
23.7	6.76792
23.92	7.09795
24.14	5.10506
24.36	3.74157
24.58	0.564647
24.8	1.28852
25.02	6.85645
25.24	0.653228
25.46	9.44999
25.68	17.8552
25.9	60.7243
26.12	4.64233
26.34	4.57885
26.56	16.6617
26.78	13.2171
27	1.42701
27.22	3.62558
27.44	1.00067
27.66	7.0897
27.88	1.89778
28.1	5.19205
28.32	0.357126
28.54	1.18627
28.76	8.83048
28.98	32.465
29.2	10.8199
29.42	0.488514
29.64	6.1979
29.86	31.8029
30.08	8.68242
30.3	0.057992
30.52	206.735
30.74	14.0587
30.96	0.412313
31.18	16.1149
31.4	9.82727
31.62	12.2044
31.84	4.6536
32.06	10.0542
32.28	1.40387
32.5	5.72595
32.72	5.73669
32.94	3.56075
33.16	0.695034
33.38	3.07837
33.6	8.3914
33.82	2.76522
34.04	7.51123
34.26	2.21423
34.48	7.04901
34.7	29.0491
34.92	12.0978
35.14	190.22
35.36	15.4748
35.58	10.0089
35.8	9.19664
36.02	0.501965
36.24	3.73728
36.46	1.81684
36.68	4.1212
36.9	4.78722
37.12	7.67215
37.34	2.23073
37.56	7.76097
37.78	8.4691
38	36.0768
38.22	38.9968
38.44	1.75011
38.66	28.7057
38.88	14.7045
39.1	12.9352
39.32	0.218177
39.54	7.44492
39.76	11.9768
39.98	0.708815
40.2	3.68567
40.42	1.75857
40.64	5.81327
40.86	3.89903
41.08	5.82819
41.3	0.709877
41.52	5.62079
41.74	11.6472
41.96	6.47573
42.18	34.0084
42.4	5.64328
42.62	2.44097
42.84	0.762563
43.06	59.4106
43.28	41.2534
43.5	13.1504
43.72	1.83432
43.94	2.64504
44.16	1.51263
44.38	2.58531
44.6	55.8622
44.82	145.173
45.04	12.3998
45.26	16.6945
45.48	4.67228
45.7	0.962717
45.92	9.28261
46.14	6.54219
46.36	1.26555
46.58	2.78823
46.8	5.77252
47.02	11.4183
47.24	2.31211
47.46	0.822115
47.68	14.0699
47.9	42.9067
48.12	11.6878
48.34	14.9173
48.56	5.7564
48.78	1.77744
49	4.08943
49.22	19.2064
49.44	5.48201
49.66	32.6793
49.88	1.79258
50.1	2.91653
50.32	4.21599
50.54	0.62725
50.76	5.08713
50.98	6.09982
51.2	0.105035
51.42	3.97932
51.64	5.93675
51.86	25.8252
52.08	23.7307
52.3	2.64393
52.52	8.30866
52.74	7.38502
52.96	4.47526
53.18	1.66745
53.4	8.80189
53.62	2.89767
53.84	13.8145
54.06	2.04184
54.28	4.24685
54.5	4.23286
54.72	13.2287
54.94	18.9963
55.16	8.79795
55.38	1.52989
55.6	13.154
55.82	7.34773
56.04	31.069
56.26	11.8312
56.48	24.492
56.7	4.06674
56.92	0.794888
57.14	1.20409
57.36	1.16018
57.58	8.17501
57.8	7.24759
58.02	9.06055
58.24	28.0809
58.46	19.7701
58.68	19.0281
58.9	7.07105
59.12	2.09453
59.34	4.75927
59.56	2.8491
59.78	2.75392
60	1.62751
60.22	0.475392
60.44	23.4122
60.66	4.28647
60.88	8.82384
61.1	5.64219
61.32	21.6901
61.54	7.82754
61.76	3.04437
61.98	12.4231
62.2	13.8936
62.42	7.1396
62.64	4.39009
62.86	4.8599
63.08	5.99273
63.3	1.2078
63.52	18.2769
63.74	9.31121
63.96	7.26095
64.18	7.32703
64.4	0.145416
64.62	15.6716
64.84	46.445
65.06	14.1841
65.28	1.62523
65.5	1.08744
65.72	6.80461
65.94	0.353568
66.16	14.5308
66.38	22.4638
66.6	8.12483
66.82	3.88467
67.04	18.0424
67.26	35.2957
67.48	8.71858
67.7	0.049929
67.92	0.435003
68.14	8.23088
68.36	10.6356
68.58	4.82862
68.8	9.94936
69.02	4.80077
69.24	2.56424
69.46	3.54081
69.68	2.35137
69.9	23.1453
70.12	1.99978
70.34	5.69589
70.56	8.93722
70.78	0.52558
71	2.41265
71.22	3.57023
71.44	4.57959
71.66	13.1877
71.88	11.0855
72.1	7.16102
72.32	0.176642
72.54	0.741003
72.76	18.968
72.98	13.0527
73.2	7.43803
73.42	5.41266
73.64	0.967918
73.86	1.9588
74.08	3.99934
74.3	3.92975
74.52	2.81347
74.74	2.22154
74.96	2.63166
75.18	4.41839
75.4	51.2516
75.62	20.0858
75.84	4.09952
76.06	5.33724
76.28	22.516
76.5	7.60187
76.72	0.718159
76.94	1.83011
77.16	1.93487
77.38	11.0887
77.6	12.238
77.82	15.383
78.04	4.66229
78.26	4.79306
78.48	8.79707
78.7	4.77172
78.92	7.85819
79.14	6.22779
79.36	2.18555
79.58	2.91776
79.8	11.8679
80.02	3.89269
80.24	2.88127
80.46	0.70064
80.68	8.87661
80.9	2.70606
81.12	0.818737
81.34	8.83444
81.56	6.58154
81.78	2.24295
82	6.81259
82.22	8.9621
82.44	9.14511
82.66	0.359715
82.88	0.467444
83.1	2.43982
83.32	4.31411
83.54	2.29533
83.76	10.2285
83.98	3.09129
84.2	0.106454
84.42	9.81884
84.64	10.6592
84.86	13.5239
85.08	13.4494
85.3	17.3217
85.52	6.25801
85.74	0.424646
85.96	3.67315
86.18	4.76032
86.4	6.9022
86.62	2.35464
86.84	1.32451
87.06	7.29909
87.28	13.3056
87.5	19.192
87.72	0.803772
87.94	2.19346
88.16	5.84224
88.38	4.88048
88.6	9.86468
88.82	5.89013
89.04	7.52962
89.26	3.57063
89.48	0.691967
89.7	8.69383
89.92	7.58756
