Measurement: Powder, Xray Data XY Processed
Mineral: Elbaite
Rruff sample: R050260
Ideal chemistry: Na(Al_1.5_Li_1.5_)Al_6_(Si_6_O_18_)(BO_3_)_3_(OH)_3_OH
Locality: Minas Gerais, Brazil
Source: Marcus Origlieri
Description: Greenish-gray prismatic single crystal
Diffraction sample description: Powder
Measured chemistry: (Na_0.76_[box]_0.17_Ca_0.07_)_Σ=1_(Al_1.67_Li_0.97_Mn_0.36_)_Σ=3_Al_6.00_(B_1.00_O_3_)_3_Si_6.00_O_18_((OH)_3.40_F_0.60_)_Σ=4_; B assumed by stoichiometry; OH estimated by charge balance
Cell parameters: a: 15.8685(4) b: 15.8685(4) c: 7.1112(2) alpha: 90 beta: 90 gamma: 120 volume: 1550.76(8) crystal system: hexagonal
x	intensity
5	0
5.22	9.88224
5.44	7.47141
5.66	19.0448
5.88	11.7721
6.1	5.94723
6.32	6.69088
6.54	9.67753
6.76	3.04137
6.98	7.67231
7.2	26.2576
7.42	6.74799
7.64	2.63376
7.86	10.8183
8.08	11.6835
8.3	2.28456
8.52	3.85266
8.74	2.72002
8.96	9.8002
9.18	3.03045
9.4	0.119471
9.62	27.8086
9.84	9.247
10.06	19.1808
10.28	13.3296
10.5	12.9013
10.72	1.63521
10.94	4.04774
11.16	58.3022
11.38	3.82919
11.6	1.39316
11.82	18.3085
12.04	5.43435
12.26	6.43288
12.48	11.566
12.7	7.30238
12.92	0.961622
13.14	13.6617
13.36	6.10074
13.58	1.87928
13.8	10.3732
14.02	195.361
14.24	21.1926
14.46	11.7443
14.68	1.95953
14.9	0.547993
15.12	0.229593
15.34	22.1382
15.56	8.3866
15.78	5.75019
16	0.84745
16.22	15.3878
16.44	13.3688
16.66	6.00182
16.88	8.37433
17.1	9.06932
17.32	15.5497
17.54	5.7702
17.76	7.42054
17.98	161.255
18.2	4.81349
18.42	7.5633
18.64	6.86911
18.86	10.0333
19.08	10.7672
19.3	11.3509
19.52	5.2535
19.74	7.11125
19.96	0.588776
20.18	11.5364
20.4	7.61524
20.62	25.738
20.84	9.5583
21.06	22.5144
21.28	66.1516
21.5	14.8836
21.72	8.60715
21.94	4.67095
22.16	16.8321
22.38	224.429
22.6	22.7756
22.82	12.4899
23.04	9.99259
23.26	6.87599
23.48	0.830559
23.7	2.35578
23.92	6.81256
24.14	4.98586
24.36	7.64301
24.58	13.1364
24.8	4.21008
25.02	0.578951
25.24	9.40023
25.46	7.7879
25.68	33.7392
25.9	404.147
26.12	24.3657
26.34	7.23642
26.56	63.5385
26.78	7.89906
27	6.29915
27.22	1.93812
27.44	3.3141
27.66	11.2985
27.88	0.413261
28.1	5.61416
28.32	0.188393
28.54	10.7082
28.76	13.3244
28.98	3.66575
29.2	6.16297
29.42	5.58142
29.64	27.6974
29.86	41.6109
30.08	0.80872
30.3	34.7822
30.52	324.83
30.74	13.9827
30.96	22.9675
31.18	16.6854
31.4	6.30523
31.62	0.903255
31.84	4.90824
32.06	8.72272
32.28	10.0098
32.5	12.4278
32.72	1.29753
32.94	14.7298
33.16	15.7437
33.38	1.03381
33.6	4.64043
33.82	7.96427
34.04	10.6554
34.26	8.18439
34.48	19.7441
34.7	12.5567
34.92	69.5119
35.14	66.9874
35.36	13.5348
35.58	21.175
35.8	8.50564
36.02	0.865143
36.24	3.48839
36.46	5.76593
36.68	11.0173
36.9	8.1917
37.12	0.354021
37.34	9.16737
37.56	15.1886
37.78	18.2152
38	48.8156
38.22	44.232
38.44	13.2783
38.66	45.7455
38.88	12.4673
39.1	13.2736
39.32	17.5082
39.54	11.9853
39.76	13.4187
39.98	0.293407
40.2	11.2307
40.42	10.3979
40.64	22.2832
40.86	10.1554
41.08	6.14
41.3	11.8913
41.52	39.1763
41.74	0.672665
41.96	54.8024
42.18	15.4604
42.4	2.30006
42.62	3.4577
42.84	15.6438
43.06	42.5741
43.28	17.4164
43.5	21.2953
43.72	10.1567
43.94	4.81953
44.16	15.8699
44.38	7.02199
44.6	78.0775
44.82	49.1978
45.04	12.8408
45.26	6.15249
45.48	9.29907
45.7	19.4176
45.92	8.62309
46.14	6.90249
46.36	8.22221
46.58	15.2736
46.8	10.2111
47.02	5.30345
47.24	1.91727
47.46	5.67798
47.68	102.483
47.9	7.25948
48.12	7.58195
48.34	8.55577
48.56	14.4602
48.78	18.8875
49	21.1619
49.22	14.3232
49.44	23.723
49.66	27.943
49.88	0.859335
50.1	12.8641
50.32	7.78277
50.54	15.7008
50.76	19.7676
50.98	9.1371
51.2	2.91534
51.42	0.535885
51.64	0.509951
51.86	32.1457
52.08	16.239
52.3	14.9818
52.52	5.08979
52.74	12.4342
52.96	8.72841
53.18	19.2139
53.4	9.821
53.62	8.26383
53.84	5.5923
54.06	4.72265
54.28	0.557455
54.5	2.23599
54.72	15.2578
54.94	2.826
55.16	20.7433
55.38	12.5999
55.6	17.1068
55.82	48.6143
56.04	2.16652
56.26	39.1097
56.48	11.8978
56.7	6.24203
56.92	4.81583
57.14	17.0993
57.36	0.170372
57.58	11.0733
57.8	7.04138
58.02	10.7849
58.24	18.7927
58.46	23.9766
58.68	22.1402
58.9	9.4187
59.12	0.476397
59.34	1.74781
59.56	8.31622
59.78	13.3237
60	3.08339
60.22	11.4059
60.44	1.85528
60.66	11.4469
60.88	10.2157
61.1	8.23056
61.32	10.4869
61.54	20.5379
61.76	7.66954
61.98	7.26059
62.2	37.4786
62.42	5.60969
62.64	7.46584
62.86	4.45161
63.08	3.66961
63.3	7.6352
63.52	10.5688
63.74	12.2111
63.96	12.1049
64.18	9.37678
64.4	22.741
64.62	39.9429
64.84	11.0394
65.06	0.162655
65.28	8.77188
65.5	16.5093
65.72	5.52236
65.94	10.5329
66.16	47.3504
66.38	0.23955
66.6	4.48203
66.82	18.1316
67.04	15.2474
67.26	15.3054
67.48	2.39362
67.7	6.36125
67.92	0.507074
68.14	1.03802
68.36	11.3599
68.58	12.5429
68.8	11.5401
69.02	16.424
69.24	5.15436
69.46	10.8767
69.68	21.842
69.9	9.5241
70.12	12.8933
70.34	1.98634
70.56	8.50376
70.78	12.4424
71	16.3053
71.22	9.19766
71.44	7.73461
71.66	3.58204
71.88	19.5167
72.1	3.28253
72.32	10.1015
72.54	1.11043
72.76	22.7526
72.98	20.8794
73.2	5.06488
73.42	2.70634
73.64	5.48466
73.86	1.75013
74.08	9.95396
74.3	7.16042
74.52	11.8005
74.74	12.1179
74.96	9.98929
75.18	41.7264
75.4	26.1743
75.62	16.4839
75.84	0.487181
76.06	24.6332
76.28	16.7765
76.5	1.88396
76.72	10.8809
76.94	9.60728
77.16	6.22934
77.38	9.4682
77.6	5.47559
77.82	2.04885
78.04	9.31974
78.26	13.4406
78.48	11.4875
78.7	19.5475
78.92	2.31528
79.14	7.14738
79.36	3.64526
79.58	19.7614
79.8	12.6502
80.02	0.093466
80.24	10.1078
80.46	11.822
80.68	10.6244
80.9	0.831852
81.12	4.97616
81.34	4.99653
81.56	9.18367
81.78	5.24971
82	1.53053
82.22	14.5921
82.44	5.98662
82.66	5.33428
82.88	11.3786
83.1	8.71672
83.32	9.56537
83.54	4.44055
83.76	1.54893
83.98	2.35642
84.2	8.7871
84.42	10.8249
84.64	14.7457
84.86	2.13316
85.08	12.9547
85.3	14.0347
85.52	17.8481
85.74	12.3397
85.96	0.49229
86.18	7.61345
86.4	4.872
86.62	7.81723
86.84	12.9986
87.06	11.0857
87.28	12.3815
87.5	11.4496
87.72	8.44466
87.94	6.44211
88.16	15.1341
88.38	3.0354
88.6	15.0984
88.82	13.1608
89.04	2.88276
89.26	3.58989
89.48	2.60494
89.7	21.2373
89.92	10.4593
