Measurement: Powder, Xray Data XY Processed
Mineral: Elpidite
Rruff sample: R060214
Ideal chemistry: Na_2_Zr^4+^Si_6_O_15_3H_2_O
Locality: Mont Saint-Hilaire, Rouville County, Quebec, Canada
Source: Royal Ontario Museum
Description: White columnar aggregate of elongated acicular crystals
Diffraction sample description: Powder
Cell parameters: a: 7.116(1) b: 14.6888(8) c: 14.6125(9) alpha: 90. beta: 90. gamma: 90. volume: 1527.3(2) crystal system: orthorhombic
x	intensity
5	0
5.22	4.871
5.44	3.953
5.66	7.71
5.88	9.779
6.1	16.109
6.32	17.83
6.54	17.866
6.76	6.107
6.98	3.518
7.2	5.03
7.42	2.638
7.64	17.271
7.86	7.77
8.08	10.453
8.3	13.939
8.52	3.99
8.74	7.916
8.96	10.411
9.18	10.876
9.4	8.192
9.62	7.911
9.84	1.576
10.06	12.579
10.28	4.547
10.5	7.594
10.72	13.567
10.94	11.248
11.16	10.441
11.38	0.985
11.6	0.689
11.82	9.48
12.04	92.544
12.26	7.59
12.48	130.283
12.7	5.942
12.92	0.22
13.14	18.11
13.36	28.194
13.58	110.914
13.8	19.404
14.02	9.376
14.24	7.518
14.46	0.778
14.68	12.043
14.9	16.658
15.12	7.07
15.34	8.917
15.56	2.925
15.78	2.701
16	1.843
16.22	7.695
16.44	1.636
16.66	0.722
16.88	19.184
17.1	382.844
17.32	45.363
17.54	5.947
17.76	3.002
17.98	4.239
18.2	0.625
18.42	85.617
18.64	6.196
18.86	4.716
19.08	6.891
19.3	6.538
19.52	5.857
19.74	1.395
19.96	11.232
20.18	7.379
20.4	6.096
20.62	10.173
20.84	1.899
21.06	11.061
21.28	70.073
21.5	3.986
21.72	7.739
21.94	11.383
22.16	10.712
22.38	10.143
22.6	0.364
22.82	14.587
23.04	6.581
23.26	6.496
23.48	5.155
23.7	3.932
23.92	0.696
24.14	9.399
24.36	93.522
24.58	18.584
24.8	5.777
25.02	18.857
25.24	26.725
25.46	5.522
25.68	13.949
25.9	0.774
26.12	9.15
26.34	6.933
26.56	4.931
26.78	7.775
27	12.596
27.22	369.976
27.44	85.422
27.66	25.399
27.88	73.117
28.1	39.45
28.32	8.596
28.54	165.809
28.76	3.28
28.98	7.882
29.2	4.479
29.42	1.093
29.64	16.539
29.86	12.753
30.08	112.515
30.3	10.318
30.52	38.004
30.74	7.509
30.96	1.079
31.18	14.107
31.4	17.153
31.62	4.872
31.84	9.03
32.06	15.194
32.28	0.616
32.5	4.339
32.72	15.037
32.94	31.246
33.16	15.429
33.38	18.433
33.6	18.424
33.82	14.547
34.04	5.006
34.26	6.097
34.48	13.176
34.7	94.738
34.92	2.955
35.14	41.138
35.36	55.809
35.58	8.559
35.8	0.977
36.02	4.271
36.24	2.509
36.46	10.745
36.68	44.111
36.9	11.274
37.12	15.065
37.34	88.515
37.56	13.091
37.78	4.595
38	13.627
38.22	11.451
38.44	6.631
38.66	15.796
38.88	11.785
39.1	7.196
39.32	11.1
39.54	1.328
39.76	0.01
39.98	3.78
40.2	4.721
40.42	4.645
40.64	5.949
40.86	14.567
41.08	9.432
41.3	7.188
41.52	18.507
41.74	3.431
41.96	1.11
42.18	9.022
42.4	6.972
42.62	7.021
42.84	5.242
43.06	13.198
43.28	34.17
43.5	12.166
43.72	3.009
43.94	8.303
44.16	8.814
44.38	0.985
44.6	30.198
44.82	12.606
45.04	12.562
45.26	6.01
45.48	7.85
45.7	3.918
45.92	8.003
46.14	16.052
46.36	23.127
46.58	27.445
46.8	17.869
47.02	1.179
47.24	16.091
47.46	7.387
47.68	6.796
47.9	13.335
48.12	7.819
48.34	9.419
48.56	13.657
48.78	0.676
49	1.605
49.22	4.976
49.44	5.166
49.66	25.436
49.88	51.811
50.1	14.816
50.32	5.412
50.54	4.048
50.76	8.49
50.98	10.357
51.2	11.063
51.42	10.784
51.64	24.273
51.86	33.917
52.08	1.827
52.3	11.962
52.52	6.968
52.74	4.978
52.96	23.969
53.18	27.036
53.4	0.128
53.62	7.366
53.84	6.896
54.06	5.696
54.28	6.962
54.5	13.253
54.72	7.501
54.94	3.614
55.16	0.108
55.38	7.366
55.6	0.651
55.82	6.249
56.04	7.495
56.26	16.009
56.48	2.934
56.7	7.047
56.92	3.103
57.14	5.98
57.36	8.967
57.58	19.088
57.8	19.489
58.02	32.428
58.24	12.009
58.46	2.976
58.68	0.857
58.9	13.249
59.12	15.345
59.34	5.807
59.56	11.183
59.78	11.348
60	1.525
60.22	6.442
60.44	10.118
60.66	2.506
60.88	6.868
61.1	6.959
61.32	4.007
61.54	3.008
61.76	5.097
61.98	4.924
62.2	10.681
62.42	24.322
62.64	22.132
62.86	7.735
63.08	11.27
63.3	12.989
63.52	10.766
63.74	7.625
63.96	7.491
64.18	7.04
64.4	1.373
64.62	7.428
64.84	20.967
65.06	24.564
65.28	0.094
65.5	2.144
65.72	6.461
65.94	4.167
66.16	6.39
66.38	2.925
66.6	5.966
66.82	2.643
67.04	6.063
67.26	3.962
67.48	2.839
67.7	6.251
67.92	2.049
68.14	1.804
68.36	6.117
68.58	8.013
68.8	11.688
69.02	17.718
69.24	14.57
69.46	27.208
69.68	22.033
69.9	2.105
70.12	8.238
70.34	1.195
70.56	12.961
70.78	10.405
71	6.519
71.22	5.907
71.44	7.024
71.66	0.04
71.88	14.21
72.1	6.355
72.32	3.491
72.54	12.81
72.76	4.806
72.98	12.781
73.2	7.893
73.42	6.064
73.64	2.892
73.86	5.986
74.08	0.204
74.3	11.478
74.52	12.523
74.74	5.862
74.96	7.771
75.18	5.479
75.4	5.445
75.62	6.409
75.84	4.194
76.06	7.998
76.28	11.726
76.5	3.423
76.72	3.189
76.94	11.368
77.16	14.874
77.38	6.814
77.6	4.874
77.82	11.961
78.04	1.878
78.26	2.943
78.48	4.34
78.7	2.479
78.92	0.523
79.14	5.785
79.36	12.848
79.58	7.988
79.8	16.206
80.02	5.206
80.24	6.166
80.46	3.201
80.68	8.405
80.9	12.396
81.12	9.3
81.34	1.255
81.56	0.973
81.78	6.646
82	0.673
82.22	2.199
82.44	2.079
82.66	0.032
82.88	11.507
83.1	5.981
83.32	1.87
83.54	3.92
83.76	8.089
83.98	9.23
84.2	4.387
84.42	3.587
84.64	4.636
84.86	1.652
85.08	2.596
85.3	3.332
85.52	5.676
85.74	5.688
85.96	20.665
86.18	10.618
86.4	2.555
86.62	12.429
86.84	0.577
87.06	1.399
87.28	11.813
87.5	6.919
87.72	10.91
87.94	5.936
88.16	7.227
88.38	5.413
88.6	10.64
88.82	5.54
89.04	4.812
89.26	0.353
89.48	10.909
89.7	13.14
89.92	0.057
