Measurement: Powder, Xray Data XY Processed
Mineral: Elpidite
Rruff sample: R060064
Ideal chemistry: Na_2_Zr^4+^Si_6_O_15_3H_2_O
Locality: Narsarsuk, Greenland
Source: University of Arizona Mineral Museum
Description: Tan colored elongated prismatic crystals
Diffraction sample description: Powder
Cell parameters: a: 7.1224(2) b: 14.6916(7) c: 14.6138(4) alpha: 90 beta: 90 gamma: 90 volume: 1529.17(8) crystal system: orthorhombic
x	intensity
5	0
5.22	5.833
5.44	0.867
5.66	5.832
5.88	11.759
6.1	18.963
6.32	7.988
6.54	8.033
6.76	0.006
6.98	15.984
7.2	15.033
7.42	7.941
7.64	8.703
7.86	7.592
8.08	9.021
8.3	4.455
8.52	3.8
8.74	3.882
8.96	7.435
9.18	3.642
9.4	9.687
9.62	11.868
9.84	11.776
10.06	1.841
10.28	1.385
10.5	11.741
10.72	2.532
10.94	7.192
11.16	0.32
11.38	4.871
11.6	1.306
11.82	9.861
12.04	23.22
12.26	22.726
12.48	182.3
12.7	35.082
12.92	1.992
13.14	1.337
13.36	13.721
13.58	246.062
13.8	9.641
14.02	2.49
14.24	1.303
14.46	1.694
14.68	9.289
14.9	3.013
15.12	17.409
15.34	12.725
15.56	1.723
15.78	0.612
16	1.553
16.22	1.986
16.44	4.436
16.66	8.248
16.88	7.056
17.1	75.923
17.32	27.439
17.54	6.39
17.76	16.231
17.98	3.846
18.2	4.072
18.42	64.258
18.64	11.669
18.86	7.92
19.08	2.074
19.3	3.272
19.52	9.446
19.74	4.502
19.96	4.426
20.18	8.872
20.4	2.371
20.62	7.128
20.84	6.986
21.06	5.829
21.28	93.895
21.5	3.964
21.72	1.929
21.94	5.763
22.16	2.176
22.38	6.257
22.6	9.459
22.82	9.841
23.04	1.053
23.26	5.107
23.48	5.959
23.7	3.794
23.92	4.706
24.14	6.554
24.36	18.365
24.58	12.182
24.8	4.977
25.02	8.926
25.24	3.594
25.46	1.247
25.68	9.316
25.9	3.914
26.12	1.149
26.34	9.474
26.56	1.772
26.78	3.074
27	12.022
27.22	181.406
27.44	177.353
27.66	19.926
27.88	32.087
28.1	32.759
28.32	19.407
28.54	154.082
28.76	28.478
28.98	2.025
29.2	2.515
29.42	3.115
29.64	5.64
29.86	6.275
30.08	79.784
30.3	16.946
30.52	58.739
30.74	11.444
30.96	5.692
31.18	4.39
31.4	5.061
31.62	0.69
31.84	7.933
32.06	5.121
32.28	8.136
32.5	10.122
32.72	8.826
32.94	12.36
33.16	6.417
33.38	8.062
33.6	23.095
33.82	3.694
34.04	1.033
34.26	7.601
34.48	8.294
34.7	54.274
34.92	9.137
35.14	41.918
35.36	35.339
35.58	4.192
35.8	3.463
36.02	1.72
36.24	14.938
36.46	2.394
36.68	10.859
36.9	6.212
37.12	4.312
37.34	47.84
37.56	5.539
37.78	12.164
38	11.948
38.22	4.122
38.44	2.476
38.66	1.3
38.88	8.678
39.1	7.605
39.32	3.731
39.54	3.762
39.76	6.656
39.98	5.251
40.2	8.171
40.42	0.519
40.64	3.439
40.86	3.297
41.08	7.287
41.3	19.7
41.52	15.928
41.74	12.79
41.96	8.718
42.18	0.509
42.4	5.5
42.62	0.612
42.84	7.793
43.06	3.732
43.28	27.607
43.5	3.404
43.72	7.536
43.94	6.421
44.16	4.442
44.38	0.943
44.6	16.022
44.82	14.863
45.04	26.44
45.26	6
45.48	1.911
45.7	1.709
45.92	6.612
46.14	6.543
46.36	17.705
46.58	37.739
46.8	18.638
47.02	9.844
47.24	10.057
47.46	0.706
47.68	0.234
47.9	7.054
48.12	3.399
48.34	3.882
48.56	8.076
48.78	2.895
49	0.123
49.22	5.551
49.44	7.692
49.66	30.198
49.88	22.365
50.1	22.922
50.32	1.663
50.54	6.186
50.76	5.832
50.98	7.483
51.2	6.056
51.42	20.058
51.64	32.282
51.86	47.61
52.08	10.693
52.3	24.102
52.52	5.468
52.74	6.253
52.96	20.027
53.18	22.888
53.4	3.918
53.62	8.042
53.84	4.929
54.06	5.859
54.28	5.111
54.5	13.917
54.72	5.193
54.94	9.532
55.16	0.045
55.38	9.366
55.6	7.849
55.82	4.498
56.04	2.841
56.26	13.021
56.48	4.801
56.7	9.857
56.92	5.358
57.14	3.115
57.36	3.705
57.58	10.627
57.8	27.986
58.02	21.795
58.24	14.265
58.46	6.037
58.68	7.859
58.9	1.837
59.12	6.894
59.34	8.908
59.56	0.383
59.78	4.524
60	0.568
60.22	1.448
60.44	6.884
60.66	6.532
60.88	4.9
61.1	13.192
61.32	5.242
61.54	7.216
61.76	3.675
61.98	4.073
62.2	9.734
62.42	19.27
62.64	8.826
62.86	2.612
63.08	6.748
63.3	8.219
63.52	32.956
63.74	8.708
63.96	5.502
64.18	6.298
64.4	7.281
64.62	5.424
64.84	11.631
65.06	10.848
65.28	3.29
65.5	5.576
65.72	7.924
65.94	1.17
66.16	5.51
66.38	5.133
66.6	5.562
66.82	6.662
67.04	0.799
67.26	8.168
67.48	4.325
67.7	4.946
67.92	8.868
68.14	4.687
68.36	4.405
68.58	11.25
68.8	5.001
69.02	13.942
69.24	21.659
69.46	16.414
69.68	16.468
69.9	3.392
70.12	2.559
70.34	4.659
70.56	1.887
70.78	10.091
71	10.327
71.22	6.245
71.44	0.121
71.66	4.148
71.88	2.29
72.1	5.344
72.32	5.495
72.54	5.013
72.76	3.245
72.98	8.214
73.2	16.288
73.42	3.26
73.64	4.463
73.86	8.486
74.08	9.572
74.3	9.559
74.52	8.658
74.74	2.58
74.96	0.021
75.18	5.117
75.4	9.309
75.62	2.299
75.84	6.164
76.06	4.945
76.28	4.875
76.5	13.723
76.72	5.841
76.94	16.751
77.16	14.039
77.38	10.027
77.6	11.705
77.82	7.473
78.04	3.927
78.26	6.971
78.48	4.004
78.7	2.974
78.92	5.018
79.14	1.16
79.36	9.438
79.58	9.296
79.8	14.31
80.02	5.318
80.24	3.257
80.46	0.692
80.68	3.847
80.9	2.836
81.12	16.903
81.34	5.552
81.56	11.334
81.78	4.792
82	2.601
82.22	6.485
82.44	6.467
82.66	3.384
82.88	4.491
83.1	8.301
83.32	2.537
83.54	2.714
83.76	6.878
83.98	2.136
84.2	7.376
84.42	4.974
84.64	3.203
84.86	7.195
85.08	5.256
85.3	5.187
85.52	2.152
85.74	2.645
85.96	8.544
86.18	0.529
86.4	10.35
86.62	14.243
86.84	0.905
87.06	8.349
87.28	5.57
87.5	8.747
87.72	8.945
87.94	3.199
88.16	3.555
88.38	9.993
88.6	6.35
88.82	12.347
89.04	6.486
89.26	0.663
89.48	1.572
89.7	3.332
89.92	4.075
