Measurement: Powder, Xray Data XY Processed
Mineral: Elpidite
Rruff sample: R060200
Ideal chemistry: Na_2_Zr^4+^Si_6_O_15_3H_2_O
Locality: Poudrette Quarry, Mont Saint-Hilaire, Rouville County, Quebec, Canada
Source: Royal Ontario Museum
Description: Tan colored columnar aggregate of elongated prismatic fibers
Diffraction sample description: Single crystal, powder profile is calculated
Cell parameters: a: 7.100(3) b: 14.647(5) c: 14.573(4) alpha: 90 beta: 90 gamma: 90 volume: 1515.5(1.8) crystal system: orthorhombic
x	intensity
5	0
5.22	0
5.44	0
5.66	0
5.88	0
6.1	0
6.32	0
6.54	0
6.76	0
6.98	0
7.2	0
7.42	0
7.64	0
7.86	0
8.08	0
8.3	0
8.52	0
8.74	0
8.96	0
9.18	0
9.4	0
9.62	0
9.84	0
10.06	0
10.28	0
10.5	0
10.72	0
10.94	0
11.16	0
11.38	0
11.6	0
11.82	0
12.04	3.791
12.26	0.013
12.48	90.472
12.7	0
12.92	0
13.14	0
13.36	0
13.58	19.862
13.8	0.616
14.02	0
14.24	0
14.46	0
14.68	0
14.9	0
15.12	0.06
15.34	0
15.56	0
15.78	0
16	0
16.22	0
16.44	0
16.66	0
16.88	0
17.1	10.008
17.32	0.374
17.54	0.101
17.76	0
17.98	0
18.2	0
18.42	21.217
18.64	0
18.86	0
19.08	0
19.3	0
19.52	0
19.74	0
19.96	0
20.18	0
20.4	0
20.62	0
20.84	0
21.06	0
21.28	31.581
21.5	0
21.72	0
21.94	1.486
22.16	0.132
22.38	0
22.6	0
22.82	0.019
23.04	0.331
23.26	0
23.48	0
23.7	0
23.92	0
24.14	0
24.36	2.231
24.58	0.006
24.8	0
25.02	1.133
25.24	0.432
25.46	0.002
25.68	0
25.9	0.016
26.12	0
26.34	0
26.56	0.163
26.78	0
27	0
27.22	16.423
27.44	28.975
27.66	0.011
27.88	7.784
28.1	9.637
28.32	0.017
28.54	27.129
28.76	0.165
28.98	0
29.2	0
29.42	0
29.64	0
29.86	0
30.08	10.751
30.3	0.049
30.52	16.67
30.74	0.001
30.96	0
31.18	0.484
31.4	0
31.62	0
31.84	0.145
32.06	0
32.28	0
32.5	0
32.72	0
32.94	0.016
33.16	3.741
33.38	0
33.6	8.603
33.82	0.008
34.04	0
34.26	0
34.48	0
34.7	16.146
34.92	0.002
35.14	3.912
35.36	6.912
35.58	1.859
35.8	0.643
36.02	0
36.24	0.01
36.46	0.025
36.68	0.012
36.9	1.508
37.12	0.002
37.34	6.141
37.56	1.668
37.78	0
38	1.726
38.22	0.176
38.44	0.163
38.66	0.085
38.88	1.478
39.1	0.101
39.32	0.064
39.54	0.569
39.76	0.267
39.98	1.207
40.2	0.012
40.42	0.181
40.64	0.842
40.86	0
41.08	0.22
41.3	0.912
41.52	1.429
41.74	0.074
41.96	2.542
42.18	0.003
42.4	0.517
42.62	0.002
42.84	0.061
43.06	0.051
43.28	9.888
43.5	0.092
43.72	0
43.94	0
44.16	0.004
44.38	0.251
44.6	0.944
44.82	1.127
45.04	9.211
45.26	0.582
45.48	0.212
45.7	1.504
45.92	0.06
46.14	0.473
46.36	0
46.58	6.327
46.8	4.844
47.02	1.674
47.24	0.133
47.46	3.852
47.68	0
47.9	0
48.12	0
48.34	0
48.56	0.993
48.78	0.843
49	0.004
49.22	0.147
49.44	0.081
49.66	0.318
49.88	1.683
50.1	1.64
50.32	0.196
50.54	0.054
50.76	0.077
50.98	0.003
51.2	0.393
51.42	10.225
51.64	1.15
51.86	3.787
52.08	5.991
52.3	0.303
52.52	3.128
52.74	0
52.96	0.035
53.18	5.398
53.4	0.945
53.62	0.511
53.84	0.217
54.06	4.822
54.28	2.115
54.5	0.749
54.72	0.914
54.94	0.461
55.16	0.262
55.38	0.056
55.6	0.788
55.82	0.081
56.04	0.376
56.26	0.033
56.48	0.455
56.7	0.322
56.92	0.547
57.14	0.084
57.36	0.658
57.58	0.731
57.8	3.455
58.02	9.399
58.24	5.171
58.46	1.689
58.68	0.006
58.9	0.031
59.12	1.028
59.34	2.565
59.56	1.507
59.78	0.769
60	0.405
60.22	0.172
60.44	0.072
60.66	0.254
60.88	0
61.1	0.138
61.32	0.077
61.54	0.056
61.76	0.003
61.98	0
62.2	0.076
62.42	2.733
62.64	8.199
62.86	1.148
63.08	0.028
63.3	0.808
63.52	3.727
63.74	3.616
63.96	0.217
64.18	1.055
64.4	0.638
64.62	0.998
64.84	1.091
65.06	2.344
65.28	1.62
65.5	0.232
65.72	1.571
65.94	0.937
66.16	0.093
66.38	0.763
66.6	0.454
66.82	0.163
67.04	0.15
67.26	0.325
67.48	0.696
67.7	0.118
67.92	0.056
68.14	0.197
68.36	0.164
68.58	1.057
68.8	0.779
69.02	1.277
69.24	1.077
69.46	0.336
69.68	3.211
69.9	1.37
70.12	0.117
70.34	0.064
70.56	0.558
70.78	0.396
71	1.173
71.22	1.768
71.44	0.498
71.66	0.218
71.88	0.059
72.1	0.36
72.32	0.207
72.54	1.583
72.76	0.74
72.98	0.016
73.2	0.702
73.42	1.304
73.64	0.555
73.86	0.089
74.08	0.06
74.3	0.163
74.52	0.35
74.74	0.634
74.96	0.347
75.18	0.085
75.4	0.033
75.62	0.431
75.84	0.385
76.06	0.091
76.28	0.011
76.5	1.05
76.72	0.613
76.94	0.056
77.16	1.529
77.38	1.199
77.6	0.216
77.82	0.206
78.04	2.213
78.26	1.07
78.48	0.044
78.7	0.423
78.92	0.199
79.14	0.164
79.36	0.131
79.58	0.708
79.8	0.63
80.02	1.651
80.24	0.83
80.46	0.183
80.68	0.38
80.9	0.482
81.12	0.191
81.34	0.996
81.56	0.94
81.78	0.347
82	0.029
82.22	0.162
82.44	0.232
82.66	0.049
82.88	0.904
83.1	0.424
83.32	0.221
83.54	0.092
83.76	1.039
83.98	0.316
84.2	0.501
84.42	0.324
84.64	0.03
84.86	0.585
85.08	0.631
85.3	0.254
85.52	0.249
85.74	0.23
85.96	0.167
86.18	2
86.4	1.206
86.62	1.4
86.84	0.182
87.06	0.111
87.28	0.397
87.5	0.599
87.72	0.363
87.94	0.907
88.16	0.055
88.38	0.106
88.6	0.06
88.82	0.608
89.04	0.028
89.26	0.55
89.48	0.111
89.7	0.203
89.92	0.063
