Measurement: Powder, Xray Data XY Processed
Mineral: Enargite
Rruff sample: R050373
Ideal chemistry: Cu_3_AsS_4_
Locality: Butte, Silver Bow County, Montana, USA
Source: Eugene Schlepp
Description: Black tabular crystals associated with quartz
Diffraction sample description: Powder
Measured chemistry: Cu_2.97_As_0.96_Sb_0.01_S_4_
Cell parameters: a: 7.4187(2) b: 6.4294(2) c: 6.1547(1) alpha: 90 beta: 90 gamma: 90 volume: 293.565(9) crystal system: orthorhombic
x	intensity
5	0
5.22	15.25
5.44	4.411
5.66	23.223
5.88	20.783
6.1	5.179
6.32	25.451
6.54	12.402
6.76	23.983
6.98	1.403
7.2	7.704
7.42	0.629
7.64	5.836
7.86	17.264
8.08	8.952
8.3	11.618
8.52	9.079
8.74	1.706
8.96	1.267
9.18	6.846
9.4	16.815
9.62	14.103
9.84	1.998
10.06	3.568
10.28	3.926
10.5	15.08
10.72	24.653
10.94	6.106
11.16	18.385
11.38	15.907
11.6	6.245
11.82	1.366
12.04	13.505
12.26	20.707
12.48	21.736
12.7	1.233
12.92	12.432
13.14	3.455
13.36	0.522
13.58	0.153
13.8	17.381
14.02	15.416
14.24	0.491
14.46	19.482
14.68	0.338
14.9	18.516
15.12	18.902
15.34	9.191
15.56	18.956
15.78	7.112
16	2.46
16.22	13.457
16.44	4.402
16.66	14.134
16.88	21.136
17.1	5.022
17.32	1.727
17.54	10.621
17.76	5.329
17.98	9.554
18.2	9.555
18.42	11.346
18.64	26.639
18.86	14.491
19.08	10.151
19.3	3.473
19.52	14.971
19.74	0.141
19.96	9.736
20.18	12.771
20.4	13.659
20.62	12.388
20.84	19.668
21.06	0.194
21.28	6.001
21.5	12.078
21.72	7.882
21.94	7.776
22.16	5.705
22.38	5.082
22.6	3.72
22.82	2.824
23.04	15.665
23.26	8.119
23.48	1.193
23.7	0.538
23.92	11.469
24.14	10.24
24.36	2.99
24.58	13.884
24.8	32.968
25.02	11.185
25.24	24.016
25.46	14.839
25.68	18.318
25.9	5.031
26.12	1.319
26.34	2.749
26.56	2.978
26.78	0.143
27	10.849
27.22	2.684
27.44	13.217
27.66	36.238
27.88	453.917
28.1	55.055
28.32	14.388
28.54	6.341
28.76	5.46
28.98	59.876
29.2	65.059
29.42	0.25
29.64	5.579
29.86	0.623
30.08	1.268
30.3	3.509
30.52	2.36
30.74	14.481
30.96	4.691
31.18	32.865
31.4	383.352
31.62	125.697
31.84	27.291
32.06	1.836
32.28	3.612
32.5	7.184
32.72	18.059
32.94	4.015
33.16	0.519
33.38	16.269
33.6	3.209
33.82	4.785
34.04	23.549
34.26	13.418
34.48	1.095
34.7	6.735
34.92	9.496
35.14	16.206
35.36	15.54
35.58	8.61
35.8	5.772
36.02	8.493
36.24	11.55
36.46	14.75
36.68	9.886
36.9	16.028
37.12	10.334
37.34	10.179
37.56	0.154
37.78	15.452
38	13.874
38.22	17.805
38.44	14.214
38.66	14.025
38.88	16.556
39.1	5.54
39.32	1.012
39.54	7.553
39.76	0.838
39.98	8.851
40.2	17.974
40.42	20.653
40.64	175.632
40.86	37.801
41.08	20.722
41.3	0.818
41.52	14.213
41.74	18.595
41.96	1.765
42.18	2.485
42.4	13.725
42.62	6.934
42.84	5.902
43.06	9.587
43.28	3.817
43.5	0.963
43.72	10.943
43.94	1.305
44.16	11.624
44.38	17.276
44.6	5.037
44.82	15.559
45.04	4.261
45.26	18.129
45.48	3.035
45.7	8.956
45.92	4.823
46.14	14.626
46.36	0.734
46.58	6.303
46.8	0.898
47.02	13.288
47.24	6.624
47.46	0.235
47.68	22.86
47.9	13.074
48.12	2.886
48.34	15.64
48.56	19.254
48.78	8.093
49	83.509
49.22	267.695
49.44	41.538
49.66	2.445
49.88	1.582
50.1	23.523
50.32	20.031
50.54	17.15
50.76	0.248
50.98	0.501
51.2	4.141
51.42	12.262
51.64	0.515
51.86	3.596
52.08	9.638
52.3	9.552
52.52	2.021
52.74	19.424
52.96	257.741
53.18	102.121
53.4	4.4
53.62	3.014
53.84	8.977
54.06	6.798
54.28	12.577
54.5	12.353
54.72	20.647
54.94	16.992
55.16	5.177
55.38	20.129
55.6	11.864
55.82	15.559
56.04	7.525
56.26	6.342
56.48	17.315
56.7	2.709
56.92	1.517
57.14	18.837
57.36	23.066
57.58	28.458
57.8	18.462
58.02	151.396
58.24	70.591
58.46	4.852
58.68	4.856
58.9	19.449
59.12	15.413
59.34	33.456
59.56	63.896
59.78	18.39
60	19.065
60.22	17.517
60.44	10.166
60.66	7.907
60.88	0.465
61.1	1.804
61.32	13.973
61.54	20.551
61.76	18.932
61.98	18.167
62.2	8.888
62.42	0.329
62.64	3.522
62.86	15.61
63.08	19.699
63.3	10.914
63.52	0.17
63.74	6.767
63.96	2.085
64.18	21.705
64.4	12.122
64.62	10.463
64.84	7.36
65.06	16.745
65.28	15.527
65.5	19.704
65.72	32.474
65.94	1.821
66.16	11.149
66.38	16.793
66.6	4.404
66.82	1.92
67.04	4.514
67.26	10.161
67.48	8.208
67.7	0.378
67.92	1.465
68.14	2.481
68.36	5.462
68.58	9.572
68.8	7.749
69.02	2.204
69.24	7.433
69.46	5.539
69.68	15.768
69.9	16.439
70.12	1.736
70.34	26.922
70.56	0.118
70.78	0.197
71	9.834
71.22	27.887
71.44	0.378
71.66	9.271
71.88	9.039
72.1	14.991
72.32	20.154
72.54	1.245
72.76	5.433
72.98	4.903
73.2	4.296
73.42	18.417
73.64	6.18
73.86	12.983
74.08	14.243
74.3	0.255
74.52	8.871
74.74	7.274
74.96	31.743
75.18	54.658
75.4	18.201
75.62	4.178
75.84	12.413
76.06	11.796
76.28	0.616
76.5	0.869
76.72	7.731
76.94	0.258
77.16	14.411
77.38	2.43
77.6	17.321
77.82	1.664
78.04	6.538
78.26	10.364
78.48	9.494
78.7	20.483
78.92	21.531
79.14	29.762
79.36	9.904
79.58	13.371
79.8	19.909
80.02	2.735
80.24	5.779
80.46	16.175
80.68	32.956
80.9	17.955
81.12	15.273
81.34	9.76
81.56	11.764
81.78	16.41
82	20.473
82.22	8.85
82.44	6.149
82.66	10.174
82.88	1.385
83.1	6.367
83.32	1.485
83.54	1.953
83.76	3.304
83.98	15.748
84.2	52.269
84.42	8.778
84.64	7.768
84.86	15.657
85.08	10.96
85.3	6.576
85.52	4.744
85.74	0.771
85.96	14.079
86.18	14.968
86.4	20.94
86.62	3.761
86.84	8.35
87.06	11.013
87.28	2.321
87.5	3.862
87.72	0.311
87.94	12.993
88.16	12.995
88.38	21.018
88.6	0.696
88.82	10.297
89.04	9.683
89.26	2.888
89.48	3.03
89.7	22.171
89.92	0.333
