Measurement: Powder, Xray Data XY Processed
Mineral: Enargite
Rruff sample: R050435
Ideal chemistry: Cu_3_AsS_4_
Locality: Longfellow mine, Red Mountain Pass, Ouray, Colorado, USA
Source: University of Arizona Mineral Museum
Description: Grayish black prismatic crystals
Diffraction sample description: Powder
Measured chemistry: Cu_2.97_As_0.95_Sb_0.02_S_4_
Cell parameters: a: 7.4262(5) b: 6.4258(4) c: 6.1541(2) alpha: 90 beta: 90 gamma: 90 volume: 293.66(2) crystal system: orthorhombic
x	intensity
5	0
5.22	14.039
5.44	3.791
5.66	18.445
5.88	24.895
6.1	7.799
6.32	20.116
6.54	22.273
6.76	17.098
6.98	14.357
7.2	11.888
7.42	23.731
7.64	5.617
7.86	6.536
8.08	2.333
8.3	10.492
8.52	17.875
8.74	10.021
8.96	22.204
9.18	2.221
9.4	1.647
9.62	18.578
9.84	10.484
10.06	3.113
10.28	23.8
10.5	21.843
10.72	12.412
10.94	4.77
11.16	9.955
11.38	12.772
11.6	7.692
11.82	10.796
12.04	8.576
12.26	28.528
12.48	9.894
12.7	7.977
12.92	11.102
13.14	2.352
13.36	20.343
13.58	14.573
13.8	18.667
14.02	9.747
14.24	2.172
14.46	3.984
14.68	2.895
14.9	18.177
15.12	21.135
15.34	6.413
15.56	10.143
15.78	17.675
16	12.623
16.22	4.599
16.44	8.409
16.66	10.375
16.88	19.379
17.1	14.951
17.32	19.054
17.54	18.174
17.76	14.835
17.98	9.704
18.2	1.982
18.42	25.013
18.64	17.779
18.86	9.711
19.08	8.397
19.3	18.184
19.52	7.782
19.74	2.594
19.96	15.641
20.18	2.558
20.4	9.265
20.62	12.82
20.84	10.864
21.06	10.475
21.28	21.451
21.5	18.371
21.72	15.241
21.94	5.368
22.16	18.941
22.38	13.677
22.6	16.433
22.82	14.768
23.04	16.738
23.26	15.855
23.48	9.603
23.7	0.188
23.92	6.058
24.14	17.789
24.36	9.455
24.58	8.027
24.8	1.548
25.02	9.15
25.24	6.321
25.46	11.868
25.68	22.388
25.9	29.95
26.12	18.236
26.34	0.984
26.56	0.529
26.78	7.775
27	18.273
27.22	4.26
27.44	22.083
27.66	91.331
27.88	129.365
28.1	17.681
28.32	7.76
28.54	74.378
28.76	14.135
28.98	117.91
29.2	38.923
29.42	1.214
29.64	10.868
29.86	12.309
30.08	25.68
30.3	205.222
30.52	18.85
30.74	6.021
30.96	1.759
31.18	10.674
31.4	257.419
31.62	51.176
31.84	36.893
32.06	3.5
32.28	0.653
32.5	5.358
32.72	4.701
32.94	9.768
33.16	18.991
33.38	1.437
33.6	4.699
33.82	8.337
34.04	25.784
34.26	6.207
34.48	8.803
34.7	1.138
34.92	7.469
35.14	51.362
35.36	18.522
35.58	10.523
35.8	10.916
36.02	8.639
36.24	10.646
36.46	11.122
36.68	0.682
36.9	16.801
37.12	5.729
37.34	17.813
37.56	12.358
37.78	11.237
38	13.676
38.22	15.318
38.44	20.37
38.66	10.199
38.88	9.757
39.1	11.759
39.32	7.159
39.54	2.834
39.76	2.779
39.98	5.061
40.2	17.087
40.42	29.289
40.64	104.367
40.86	36.044
41.08	12.498
41.3	10.123
41.52	15.344
41.74	14.314
41.96	7.192
42.18	6.916
42.4	17.66
42.62	12.186
42.84	9.671
43.06	21.098
43.28	30.036
43.5	15.941
43.72	3.592
43.94	4.563
44.16	18.429
44.38	0.53
44.6	5.702
44.82	6.809
45.04	5.158
45.26	11.823
45.48	13.982
45.7	7.579
45.92	8.82
46.14	13.878
46.36	18.523
46.58	15.18
46.8	8.878
47.02	10.661
47.24	8.825
47.46	37.893
47.68	55.799
47.9	7.268
48.12	17.82
48.34	5.234
48.56	6.353
48.78	41.665
49	83.15
49.22	144.633
49.44	26.445
49.66	6.989
49.88	16.398
50.1	12.581
50.32	11.859
50.54	91.19
50.76	31.217
50.98	31.034
51.2	8.707
51.42	21.07
51.64	16.007
51.86	16.019
52.08	3.74
52.3	10.033
52.52	8.43
52.74	26.483
52.96	172.732
53.18	49.5
53.4	22.489
53.62	5.65
53.84	4.664
54.06	16.343
54.28	9.5
54.5	23.795
54.72	14.447
54.94	10.017
55.16	17.418
55.38	12.103
55.6	1.81
55.82	10.041
56.04	16.565
56.26	26.127
56.48	39.091
56.7	15.77
56.92	4.178
57.14	5.45
57.36	22.291
57.58	23.829
57.8	18.891
58.02	96.621
58.24	52.042
58.46	6.094
58.68	10.589
58.9	14.947
59.12	17.227
59.34	21.191
59.56	22.753
59.78	14.18
60	30.948
60.22	37.617
60.44	12.782
60.66	15.745
60.88	6.248
61.1	19.114
61.32	1.267
61.54	2.656
61.76	6.673
61.98	16.115
62.2	10.163
62.42	14.985
62.64	11.847
62.86	8.651
63.08	24.224
63.3	15.633
63.52	11.502
63.74	4.733
63.96	20.563
64.18	17.401
64.4	8.112
64.62	12.348
64.84	6.826
65.06	6.488
65.28	32.005
65.5	18.537
65.72	15.327
65.94	10.153
66.16	3.869
66.38	0.393
66.6	7.558
66.82	6.646
67.04	10.07
67.26	8.715
67.48	20.588
67.7	7.002
67.92	0.914
68.14	3.771
68.36	10.049
68.58	16.954
68.8	4.08
69.02	2.336
69.24	24.286
69.46	16
69.68	1.436
69.9	15.424
70.12	5.381
70.34	12.517
70.56	10.674
70.78	10.942
71	13.165
71.22	4.104
71.44	0.817
71.66	9.245
71.88	14.368
72.1	6.648
72.32	10.227
72.54	1.944
72.76	6.125
72.98	15.952
73.2	19.253
73.42	9.983
73.64	2.791
73.86	17.159
74.08	2.731
74.3	2.7
74.52	0.069
74.74	22.849
74.96	29.058
75.18	40.453
75.4	8.373
75.62	13.333
75.84	3.843
76.06	8.257
76.28	1.938
76.5	21.42
76.72	23.222
76.94	21.38
77.16	9.288
77.38	16.861
77.6	13.909
77.82	3.212
78.04	17.618
78.26	7.486
78.48	18.086
78.7	19.335
78.92	27.157
79.14	21.914
79.36	20.669
79.58	6.496
79.8	7.334
80.02	12.206
80.24	7.158
80.46	16.996
80.68	1.725
80.9	13.255
81.12	18.131
81.34	2.046
81.56	3.567
81.78	10.671
82	5.191
82.22	10.996
82.44	12.237
82.66	8.762
82.88	21.814
83.1	12.727
83.32	10.776
83.54	0.881
83.76	17.874
83.98	22.722
84.2	41.613
84.42	27.989
84.64	13.148
84.86	7.095
85.08	9.693
85.3	11.427
85.52	12.546
85.74	4.893
85.96	17.346
86.18	1.58
86.4	25.055
86.62	15.047
86.84	11.657
87.06	12.405
87.28	2.686
87.5	4.45
87.72	11.133
87.94	16.503
88.16	7.387
88.38	7.325
88.6	25.614
88.82	16.583
89.04	14.036
89.26	22.975
89.48	10.413
89.7	15.179
89.92	11.962
