Measurement: Powder, Xray Data XY Processed
Mineral: Enstatite
Rruff sample: R060744
Ideal chemistry: MgSiO_3_
Locality: Orissa, India
Source: Herb Obodda
Description: Brown transparent fragment
Diffraction sample description: Powder
Measured chemistry: (Mg_0.85_Fe^2+^_0.13_Fe^3+^_0.01_Mn_0.01_)_Σ=1_(Si_0.99_Al_0.01_)_Σ=1_O_3_; trace amounts of Ca; Fe^2+^ and Fe^3+^ splitted by charge balance
Cell parameters: a: 18.266(1) b: 8.8505(6) c: 5.1964(6) alpha: 90 beta: 90 gamma: 90 volume: 840.04(9) crystal system: orthorhombic
x	intensity
5	0
5.22	0.575794
5.44	15.9481
5.66	14.286
5.88	17.9904
6.1	22.4236
6.32	10.6296
6.54	20.96
6.76	13.0449
6.98	9.42847
7.2	9.32537
7.42	12.7336
7.64	5.55711
7.86	14.9219
8.08	4.18096
8.3	12.2535
8.52	18.3148
8.74	14.3381
8.96	0.506756
9.18	23.6948
9.4	4.67855
9.62	3.78211
9.84	2.3652
10.06	17.2682
10.28	12.4529
10.5	1.71981
10.72	1.49484
10.94	13.8141
11.16	1.17391
11.38	8.83988
11.6	13.7654
11.82	13.8383
12.04	9.7369
12.26	21.2731
12.48	13.2225
12.7	7.52304
12.92	10.6256
13.14	4.62329
13.36	10.1394
13.58	20.3171
13.8	22.6383
14.02	7.989
14.24	6.29325
14.46	15.1402
14.68	13.1978
14.9	8.24183
15.12	6.00669
15.34	10.8327
15.56	10.3741
15.78	13.9391
16	5.1499
16.22	5.74652
16.44	5.91365
16.66	8.80453
16.88	3.73686
17.1	7.53758
17.32	6.36817
17.54	7.80308
17.76	16.7856
17.98	12.3737
18.2	25.0058
18.42	19.7414
18.64	0.12315
18.86	6.67194
19.08	0.451096
19.3	26.35
19.52	10.3797
19.74	7.4133
19.96	6.88475
20.18	17.037
20.4	10.689
20.62	1.33247
20.84	6.16462
21.06	3.6634
21.28	12.0041
21.5	4.9852
21.72	0.962872
21.94	14.8864
22.16	13.886
22.38	13.3519
22.6	15.4818
22.82	10.8163
23.04	15.0785
23.26	16.9711
23.48	16.0429
23.7	8.93932
23.92	11.6823
24.14	10.5338
24.36	5.44495
24.58	7.41789
24.8	12.3536
25.02	12.7412
25.24	20.9037
25.46	2.31161
25.68	11.7697
25.9	6.51312
26.12	8.23978
26.34	8.79527
26.56	2.67428
26.78	1.27954
27	38.0403
27.22	2.82615
27.44	16.8424
27.66	1.63872
27.88	18.0757
28.1	304.435
28.32	114.53
28.54	19.3059
28.76	15.106
28.98	3.243
29.2	0.401104
29.42	11.9522
29.64	4.57944
29.86	4.11356
30.08	4.41268
30.3	21.948
30.52	12.8025
30.74	3.20073
30.96	22.089
31.18	228.165
31.4	17.6976
31.62	72.3821
31.84	29.8511
32.06	9.28027
32.28	15.8358
32.5	8.14082
32.72	8.43473
32.94	3.52751
33.16	44.9382
33.38	8.89129
33.6	11.872
33.82	13.2609
34.04	3.27284
34.26	3.00746
34.48	18.7093
34.7	12.3682
34.92	0.296021
35.14	6.89671
35.36	126.896
35.58	16.0348
35.8	24.0746
36.02	35.6151
36.24	28.6613
36.46	28.4611
36.68	5.30064
36.9	2.98969
37.12	13.3298
37.34	6.28996
37.56	6.72771
37.78	23.4712
38	2.05935
38.22	7.25926
38.44	19.6507
38.66	2.00792
38.88	0.761055
39.1	17.7971
39.32	11.8915
39.54	9.28833
39.76	11.1452
39.98	20.277
40.2	9.11307
40.42	9.76291
40.64	9.09112
40.86	17.5789
41.08	9.73572
41.3	7.53573
41.52	6.59964
41.74	6.19463
41.96	8.62263
42.18	13.8413
42.4	12.3764
42.62	7.22216
42.84	45.3169
43.06	34.3124
43.28	22.7689
43.5	2.36822
43.72	12.6714
43.94	16.0442
44.16	14.5587
44.38	15.5281
44.6	9.42854
44.82	43.3882
45.04	2.14929
45.26	3.42704
45.48	1.07692
45.7	36.9432
45.92	12.8684
46.14	10.8073
46.36	32.2616
46.58	20.3859
46.8	3.88152
47.02	5.31129
47.24	2.69406
47.46	0.504887
47.68	15.0009
47.9	8.0492
48.12	14.7577
48.34	12.9143
48.56	11.5759
48.78	3.6463
49	0.058182
49.22	21.9236
49.44	7.13601
49.66	17.57
49.88	8.67208
50.1	9.48147
50.32	4.27209
50.54	13.0526
50.76	1.53285
50.98	20.3897
51.2	18.7806
51.42	12.4064
51.64	26.4545
51.86	5.38231
52.08	3.33598
52.3	1.6292
52.52	12.0322
52.74	5.04769
52.96	20.1219
53.18	9.72226
53.4	7.16242
53.62	7.43578
53.84	14.4614
54.06	7.20994
54.28	16.8885
54.5	18.1194
54.72	8.80325
54.94	17.2869
55.16	8.31903
55.38	10.8482
55.6	1.1699
55.82	14.7352
56.04	6.37534
56.26	5.10566
56.48	5.08248
56.7	8.16117
56.92	12.7806
57.14	22.0799
57.36	26.0747
57.58	7.0473
57.8	5.43065
58.02	20.1956
58.24	1.49525
58.46	11.364
58.68	11.6247
58.9	15.1861
59.12	8.69642
59.34	23.7477
59.56	16.3743
59.78	7.99173
60	18.0967
60.22	6.96136
60.44	9.04701
60.66	23.6371
60.88	23.7067
61.1	19.9028
61.32	1.36565
61.54	10.782
61.76	9.0726
61.98	1.20748
62.2	5.70162
62.42	71.2121
62.64	18.4143
62.86	23.0152
63.08	33.8768
63.3	7.33777
63.52	5.32106
63.74	9.75454
63.96	5.85863
64.18	5.12414
64.4	9.5981
64.62	14.5694
64.84	3.51951
65.06	10.5234
65.28	3.51386
65.5	17.7918
65.72	18.5056
65.94	7.03129
66.16	9.62304
66.38	0.264687
66.6	9.28239
66.82	28.727
67.04	29.7325
67.26	22.4698
67.48	13.6312
67.7	9.42498
67.92	2.70438
68.14	2.22651
68.36	14.5911
68.58	8.24794
68.8	0.758236
69.02	15.9912
69.24	4.32177
69.46	11.6516
69.68	26.8692
69.9	11.8493
70.12	18.0979
70.34	14.8152
70.56	19.6324
70.78	6.69556
71	9.35844
71.22	0.109543
71.44	7.61041
71.66	8.43053
71.88	8.54365
72.1	2.10588
72.32	14.6765
72.54	9.76501
72.76	16.8552
72.98	17.6082
73.2	16.1477
73.42	2.62693
73.64	3.59238
73.86	4.48969
74.08	7.69615
74.3	11.9401
74.52	6.34287
74.74	28.3557
74.96	17.119
75.18	4.13838
75.4	6.66397
75.62	6.46817
75.84	11.4391
76.06	13.2195
76.28	5.15294
76.5	19.9277
76.72	1.94465
76.94	15.0015
77.16	2.13208
77.38	17.3084
77.6	5.36242
77.82	6.12552
78.04	15.184
78.26	9.7103
78.48	3.25069
78.7	16.753
78.92	9.08974
79.14	12.857
79.36	18.3106
79.58	0.328358
79.8	14.497
80.02	5.66704
80.24	12.7075
80.46	8.68211
80.68	23.2943
80.9	24.0995
81.12	9.7648
81.34	21.8339
81.56	15.7794
81.78	6.63762
82	20.3269
82.22	16.958
82.44	2.78065
82.66	23.0016
82.88	9.08169
83.1	4.24361
83.32	9.25953
83.54	13.2866
83.76	1.52583
83.98	12.6554
84.2	0.709919
84.42	17.6056
84.64	11.7953
84.86	13.7547
85.08	18.5771
85.3	9.63782
85.52	9.96636
85.74	10.4334
85.96	16.5144
86.18	11.2912
86.4	7.29684
86.62	7.85374
86.84	7.95
87.06	4.0054
87.28	2.75356
87.5	3.39005
87.72	11.8652
87.94	6.98046
88.16	7.20557
88.38	17.8142
88.6	12.0691
88.82	19.3347
89.04	12.5976
89.26	14.1171
89.48	12.1577
89.7	21.4732
89.92	12.7925
