Measurement: Powder, Xray Data XY Processed
Mineral: Epidote
Rruff sample: R040092
Ideal chemistry: Ca_2_Fe^3+^Al_2_(Si_2_O_7_)(SiO_4_)O(OH)
Locality: Nahant, Massachusetts, USA
Source: University of Arizona Mineral Museum
Description: Green prismatic crystals imbedded in quartz
Diffraction sample description: Powder
Measured chemistry: Ca_2.01_Al_2.00_Fe_1.00_(Si_1.00_O_4_)(Si_1.97_Fe_0.02_Al_0.01_Ti_0.01_O_7_)O(OH)
Cell parameters: a: 8.882(3) b: 5.619(1) c: 10.138(4) alpha: 90 beta: 115.38(3) gamma: 90 volume: 457.1(0) crystal system: monoclinic
x	intensity
5	0
5.22	4.971
5.44	24.445
5.66	13.894
5.88	8.094
6.1	17.481
6.32	15.232
6.54	24.399
6.76	16.004
6.98	7.914
7.2	20.017
7.42	7.27
7.64	14.859
7.86	14.476
8.08	1.95
8.3	2.82
8.52	7.702
8.74	20.879
8.96	13.833
9.18	6.122
9.4	17.517
9.62	11.82
9.84	16.873
10.06	2.571
10.28	14.318
10.5	11.089
10.72	15.386
10.94	8.957
11.16	12.152
11.38	7.298
11.6	7.266
11.82	11.201
12.04	5.668
12.26	0.824
12.48	12.22
12.7	4.386
12.92	19.618
13.14	16.731
13.36	23.635
13.58	18.01
13.8	10.723
14.02	6.35
14.24	1.675
14.46	11.078
14.68	11.58
14.9	16.345
15.12	20.336
15.34	1.9
15.56	5.177
15.78	15.013
16	5.427
16.22	11.85
16.44	7.831
16.66	9.615
16.88	4.027
17.1	21.602
17.32	20.602
17.54	22.67
17.76	49.256
17.98	10.456
18.2	9.655
18.42	13.458
18.64	7.79
18.86	7.535
19.08	17.245
19.3	26.115
19.52	8.297
19.74	16.248
19.96	11.75
20.18	16.068
20.4	2.441
20.62	16.397
20.84	15.101
21.06	16.983
21.28	14.898
21.5	14.855
21.72	2.93
21.94	16.294
22.16	68.738
22.38	41.726
22.6	11.866
22.82	1.211
23.04	14.907
23.26	17.314
23.48	6.001
23.7	14.564
23.92	10.994
24.14	9.059
24.36	5.143
24.58	10.577
24.8	4.032
25.02	13.826
25.24	18.315
25.46	39.97
25.68	8.351
25.9	13.813
26.12	30.254
26.34	17.532
26.56	15.946
26.78	567.662
27	9.612
27.22	17.483
27.44	6.956
27.66	5.368
27.88	29.475
28.1	8.817
28.32	10.805
28.54	8.71
28.76	11.188
28.98	12.707
29.2	39.373
29.42	0.614
29.64	6.896
29.86	10.05
30.08	10.715
30.3	8.911
30.52	20.568
30.74	40.249
30.96	56.067
31.18	0.373
31.4	2.213
31.62	22.115
31.84	32.672
32.06	29.871
32.28	16.84
32.5	0.915
32.72	15.809
32.94	10.148
33.16	13.985
33.38	70.777
33.6	18.581
33.82	24.988
34.04	6.194
34.26	11.456
34.48	201.956
34.7	25.017
34.92	13.142
35.14	4.677
35.36	19.079
35.58	9.345
35.8	0.867
36.02	1.115
36.24	10.492
36.46	18.667
36.68	9.241
36.9	6.454
37.12	17.717
37.34	15.797
37.56	14.325
37.78	9.847
38	15.031
38.22	1.368
38.44	7.401
38.66	3.434
38.88	17.743
39.1	48.043
39.32	25.902
39.54	22.927
39.76	9.986
39.98	11.195
40.2	11.449
40.42	7.888
40.64	9.707
40.86	18.383
41.08	2.444
41.3	12.853
41.52	6.499
41.74	32.179
41.96	0.146
42.18	9.564
42.4	21.187
42.62	45.762
42.84	25.648
43.06	6.464
43.28	7.101
43.5	6.055
43.72	47.234
43.94	8.286
44.16	4.42
44.38	9.883
44.6	24.785
44.82	7.915
45.04	3.698
45.26	9.177
45.48	5.958
45.7	11.031
45.92	6.093
46.14	4.797
46.36	18.306
46.58	8.933
46.8	11.465
47.02	12.734
47.24	9.753
47.46	10.111
47.68	5.967
47.9	1.761
48.12	20.098
48.34	35.533
48.56	66.528
48.78	28.363
49	38.881
49.22	5.273
49.44	22.382
49.66	15.921
49.88	13.378
50.1	27.347
50.32	32.487
50.54	9.166
50.76	11.69
50.98	9.906
51.2	6.478
51.42	13.426
51.64	27.048
51.86	1.676
52.08	10.968
52.3	8.194
52.52	3.293
52.74	2.207
52.96	15.053
53.18	12.699
53.4	4.365
53.62	27.547
53.84	23.124
54.06	16.208
54.28	34.978
54.5	20.31
54.72	7.45
54.94	15.866
55.16	3.074
55.38	10.79
55.6	13.558
55.82	28.993
56.04	103.412
56.26	44.924
56.48	36.639
56.7	32.763
56.92	9.767
57.14	16.268
57.36	6.109
57.58	10.582
57.8	10.077
58.02	14.452
58.24	18.567
58.46	36.473
58.68	16.662
58.9	6.729
59.12	0.131
59.34	9.933
59.56	15.902
59.78	8.026
60	11.721
60.22	10.254
60.44	25.26
60.66	28.574
60.88	5.292
61.1	15.808
61.32	4.124
61.54	24.038
61.76	9.851
61.98	15.77
62.2	2.405
62.42	2.2
62.64	3.361
62.86	10.998
63.08	7.767
63.3	15.047
63.52	7.075
63.74	43.717
63.96	19.553
64.18	26.94
64.4	1.952
64.62	5.13
64.84	16.476
65.06	6.175
65.28	4.291
65.5	7.28
65.72	3.313
65.94	5.644
66.16	5.829
66.38	30.027
66.6	33.74
66.82	17.883
67.04	47.217
67.26	15.826
67.48	1.135
67.7	16.438
67.92	7.548
68.14	1.415
68.36	27.03
68.58	19.179
68.8	2.592
69.02	14.168
69.24	9.944
69.46	28.679
69.68	18.965
69.9	11.166
70.12	13.271
70.34	1.396
70.56	10.045
70.78	9.902
71	15.727
71.22	7.82
71.44	5.852
71.66	9.002
71.88	8.927
72.1	26.759
72.32	14.345
72.54	8.639
72.76	14.991
72.98	15.772
73.2	11.256
73.42	3.258
73.64	1.067
73.86	2.376
74.08	10.336
74.3	22.485
74.52	19.433
74.74	5.299
74.96	24.294
75.18	4.488
75.4	14.876
75.62	23.751
75.84	17.851
76.06	12.771
76.28	14.694
76.5	13.53
76.72	5.626
76.94	3.531
77.16	10.451
77.38	11.591
77.6	10.994
77.82	17.847
78.04	16.662
78.26	4.559
78.48	8.935
78.7	3.015
78.92	28.678
79.14	9.64
79.36	25.83
79.58	18.244
79.8	1.329
80.02	27.946
80.24	31.533
80.46	7.715
80.68	11.979
80.9	20.839
81.12	2.033
81.34	17.692
81.56	6.696
81.78	0.697
82	2.404
82.22	5.429
82.44	13.892
82.66	14.399
82.88	3.374
83.1	9.031
83.32	8.549
83.54	20.379
83.76	6.668
83.98	8.837
84.2	15.692
84.42	22.611
84.64	5.92
84.86	11.074
85.08	7.222
85.3	14.993
85.52	12.082
85.74	17.958
85.96	21.139
86.18	23.139
86.4	21.613
86.62	15.446
86.84	12.61
87.06	23.367
87.28	8.324
87.5	15.135
87.72	16.179
87.94	6.229
88.16	6.404
88.38	10.53
88.6	20.353
88.82	26.457
89.04	7.968
89.26	10.822
89.48	5.284
89.7	8.195
89.92	8.625
