Measurement: Powder, Xray Data XY Processed
Mineral: Epidote
Rruff sample: R040089
Ideal chemistry: Ca_2_Fe^3+^Al_2_(Si_2_O_7_)(SiO_4_)O(OH)
Locality: Grafton County, New Hampshire, USA
Source: University of Arizona Mineral Museum
Description: Dark green coarsely crystalline massive
Diffraction sample description: Powder
Measured chemistry: Ca_2.00_(Al_2.36_Fe^3+^_0.64_)[Si_2.00_O_7_][Si_1.00_O_4_]O(OH)
Cell parameters: a: 8.8881(7) b: 5.6198(1) c: 10.1564(8) alpha: 90. beta: 115.438(6) gamma: 90. volume: 458.12(4) crystal system: monoclinic
x	intensity
5	0
5.22	11.505
5.44	18.321
5.66	13.895
5.88	0.931
6.1	4.487
6.32	19.158
6.54	18.552
6.76	8.415
6.98	10.234
7.2	18.856
7.42	8.762
7.64	3.698
7.86	0.271
8.08	5.184
8.3	15.834
8.52	19.393
8.74	11.185
8.96	12.121
9.18	9.587
9.4	19.128
9.62	3.152
9.84	9.075
10.06	10.241
10.28	11.113
10.5	25.381
10.72	0.205
10.94	9.01
11.16	36.895
11.38	6.168
11.6	11.375
11.82	1.264
12.04	4.578
12.26	29.497
12.48	17.396
12.7	5.627
12.92	10.61
13.14	2.484
13.36	14.449
13.58	15.926
13.8	11.013
14.02	0.785
14.24	14.442
14.46	8.624
14.68	8.906
14.9	8.523
15.12	23.859
15.34	17.758
15.56	14.778
15.78	3.958
16	9.166
16.22	9.545
16.44	11.11
16.66	0.11
16.88	17.305
17.1	2.311
17.32	11.147
17.54	11.057
17.76	126.062
17.98	12.787
18.2	12.589
18.42	23.636
18.64	4.956
18.86	4.618
19.08	1.058
19.3	31.28
19.52	10.256
19.74	16.581
19.96	11.74
20.18	15.058
20.4	0.773
20.62	14.027
20.84	13.965
21.06	7.075
21.28	13.561
21.5	1.739
21.72	11.599
21.94	12.313
22.16	41.845
22.38	39.124
22.6	16.988
22.82	15.825
23.04	4.696
23.26	13.611
23.48	13.85
23.7	28.497
23.92	14.823
24.14	6.1
24.36	7.477
24.58	5.521
24.8	3.563
25.02	10.536
25.24	7.413
25.46	24.137
25.68	48.441
25.9	18.805
26.12	16.483
26.34	22.242
26.56	9.786
26.78	4.164
27	3.242
27.22	2.284
27.44	0.585
27.66	14.8
27.88	80.552
28.1	4.168
28.32	20.035
28.54	10.193
28.76	0.303
28.98	15.998
29.2	17.895
29.42	14.781
29.64	4.364
29.86	5.157
30.08	17.609
30.3	1.495
30.52	23.133
30.74	54.586
30.96	142.579
31.18	20.351
31.4	6.741
31.62	5.479
31.84	68.822
32.06	6.471
32.28	23.181
32.5	7.084
32.72	14.964
32.94	3.758
33.16	9.392
33.38	241.478
33.6	64.616
33.82	77.522
34.04	4.356
34.26	4.737
34.48	30.475
34.7	31.75
34.92	10.129
35.14	5.914
35.36	8.482
35.58	44.095
35.8	17.249
36.02	12.336
36.24	4.147
36.46	13.29
36.68	38.815
36.9	22.781
37.12	4.08
37.34	22.675
37.56	219.926
37.78	12.432
38	23.61
38.22	0.831
38.44	11.132
38.66	10.86
38.88	12.078
39.1	11.618
39.32	47.256
39.54	9.513
39.76	4.897
39.98	1.707
40.2	6.95
40.42	5.951
40.64	1.803
40.86	15.546
41.08	11.91
41.3	9.147
41.52	20.578
41.74	48.914
41.96	47.444
42.18	12.635
42.4	8.899
42.62	6.617
42.84	26.487
43.06	28.151
43.28	0.187
43.5	8.525
43.72	20.226
43.94	18.984
44.16	7.378
44.38	18.824
44.6	16.621
44.82	18.99
45.04	13.528
45.26	24.818
45.48	15.397
45.7	13.671
45.92	4.224
46.14	4.142
46.36	1.816
46.58	7.574
46.8	3.524
47.02	10.579
47.24	8.501
47.46	7.682
47.68	13.235
47.9	4.335
48.12	28.838
48.34	5.053
48.56	28.5
48.78	27.5
49	12.832
49.22	9.74
49.44	10.713
49.66	9.984
49.88	7.779
50.1	19.856
50.32	11.657
50.54	21.429
50.76	3.09
50.98	1.31
51.2	8.2
51.42	15.077
51.64	18.04
51.86	12.984
52.08	11.54
52.3	13.218
52.52	9.936
52.74	16.022
52.96	3.146
53.18	21.832
53.4	11.076
53.62	17.753
53.84	12.238
54.06	9.288
54.28	30.554
54.5	9.413
54.72	5.755
54.94	9.063
55.16	1.738
55.38	6.998
55.6	1.545
55.82	5.969
56.04	13.956
56.26	45.813
56.48	26.857
56.7	48.126
56.92	19.07
57.14	0.011
57.36	2.137
57.58	8.255
57.8	10.553
58.02	25.218
58.24	24.123
58.46	16.882
58.68	22.963
58.9	6.966
59.12	1.489
59.34	1.069
59.56	1.66
59.78	5.019
60	27.518
60.22	12.723
60.44	13.8
60.66	19.723
60.88	14.957
61.1	6.775
61.32	1.235
61.54	2.003
61.76	20.157
61.98	16.265
62.2	14.688
62.42	6.342
62.64	9.923
62.86	0.682
63.08	0.39
63.3	0.74
63.52	2.273
63.74	7.913
63.96	68.705
64.18	54.169
64.4	15.375
64.62	23.41
64.84	25.798
65.06	19.757
65.28	7.74
65.5	4.772
65.72	0.741
65.94	2.275
66.16	15.732
66.38	3.727
66.6	31.04
66.82	13.295
67.04	7.93
67.26	48.443
67.48	13.187
67.7	14.881
67.92	14.295
68.14	3.953
68.36	4.732
68.58	18.165
68.8	16.003
69.02	1.064
69.24	10.24
69.46	2.751
69.68	6.089
69.9	15.464
70.12	21.826
70.34	25.021
70.56	22.9
70.78	17.651
71	9.476
71.22	12.582
71.44	17.609
71.66	15.632
71.88	3.547
72.1	21.985
72.32	7.605
72.54	21.149
72.76	13.351
72.98	17.985
73.2	15.763
73.42	14.247
73.64	10.211
73.86	6.992
74.08	11.763
74.3	3.626
74.52	7.308
74.74	21.179
74.96	18.856
75.18	15.938
75.4	11.532
75.62	14.597
75.84	10.496
76.06	7.791
76.28	8.956
76.5	13.105
76.72	1.41
76.94	4.73
77.16	8.326
77.38	5.114
77.6	0.464
77.82	4.485
78.04	6.468
78.26	12.876
78.48	11.527
78.7	16.672
78.92	12.011
79.14	9.969
79.36	12.098
79.58	7.235
79.8	20.452
80.02	8.655
80.24	7.092
80.46	1.014
80.68	1.032
80.9	11.695
81.12	26.848
81.34	10.897
81.56	5.837
81.78	1.946
82	10.947
82.22	11.829
82.44	11.93
82.66	6.298
82.88	21.408
83.1	2.332
83.32	9.633
83.54	0.391
83.76	18.557
83.98	20.958
84.2	8.615
84.42	16.279
84.64	3.598
84.86	8.421
85.08	3.24
85.3	14.857
85.52	4.705
85.74	14.083
85.96	9.537
86.18	18.348
86.4	13.922
86.62	19.715
86.84	1.182
87.06	7.335
87.28	9.073
87.5	7.297
87.72	24.655
87.94	16.472
88.16	8.762
88.38	16.125
88.6	7.804
88.82	12.156
89.04	7.938
89.26	7.605
89.48	0.183
89.7	17.96
89.92	1.567
