Measurement: Powder, Xray Data XY Processed
Mineral: Erythrite
Rruff sample: R050073
Ideal chemistry: Co^2+^_3_(As^5+^O_4_)_2_8H_2_O
Locality: Bou Azzer, Morocco
Source: Rock Currier
Description: Crimson flattened crystals
Diffraction sample description: Powder
Measured chemistry: (Co_0.65_Mg_0.35_)_3_(As_1.00_O_4_)_2_Â·8H_2_O
Cell parameters: a: 10.273(2) b: 13.4342(6) c: 4.7543(9) alpha: 90. beta: 105.11(2) gamma: 90. volume: 633.4(1) crystal system: monoclinic
x	intensity
5	0
5.22	1.2895
5.44	19.9518
5.66	27.4065
5.88	20.1089
6.1	29.3868
6.32	5.08184
6.54	12.7688
6.76	3.83687
6.98	27.6491
7.2	9.02081
7.42	14.8084
7.64	24.4054
7.86	9.20523
8.08	25.2159
8.3	6.5588
8.52	24.1146
8.74	15.0143
8.96	14.6047
9.18	18.613
9.4	20.1412
9.62	14.345
9.84	15.563
10.06	16.0786
10.28	0.579369
10.5	21.1911
10.72	26.6537
10.94	32.1656
11.16	113.008
11.38	33.0976
11.6	18.9398
11.82	25.124
12.04	26.9141
12.26	2.71047
12.48	15.698
12.7	17.1608
12.92	47.6232
13.14	321.657
13.36	78.2706
13.58	24.4363
13.8	21.642
14.02	2.58888
14.24	20.48
14.46	14.3205
14.68	25.4292
14.9	9.00481
15.12	9.91323
15.34	3.28026
15.56	12.2625
15.78	31.4835
16	13.7261
16.22	11.2015
16.44	3.94258
16.66	32.8225
16.88	25.4664
17.1	22.1656
17.32	18.3027
17.54	14.2985
17.76	36.4783
17.98	10.1268
18.2	12.7959
18.42	21.8498
18.64	1.68321
18.86	16.1305
19.08	7.80661
19.3	20.6678
19.52	13.1851
19.74	22.8115
19.96	12.535
20.18	44.4425
20.4	24.4962
20.62	5.92386
20.84	28.8118
21.06	10.0521
21.28	14.3679
21.5	12.7757
21.72	23.4026
21.94	13.3786
22.16	27.1273
22.38	23.3542
22.6	9.21304
22.82	25.7618
23.04	20.3654
23.26	14.3643
23.48	33.8988
23.7	12.7867
23.92	8.87115
24.14	7.23229
24.36	20.9278
24.58	6.47019
24.8	7.14959
25.02	25.9375
25.24	20.5421
25.46	13.9565
25.68	28.4553
25.9	8.03651
26.12	10.9735
26.34	36.7103
26.56	62.3816
26.78	4.18453
27	11.3573
27.22	21.3044
27.44	26.5505
27.66	96.3612
27.88	53.8291
28.1	18.0256
28.32	17.8547
28.54	18.7621
28.76	41.1459
28.98	32.2218
29.2	21.9758
29.42	1.23509
29.64	43.3213
29.86	45.7241
30.08	30.0237
30.3	16.539
30.52	10.6389
30.74	11.4359
30.96	21.1833
31.18	22.6053
31.4	9.40076
31.62	18.3271
31.84	27.8632
32.06	12.0638
32.28	32.6875
32.5	10.3975
32.72	50.8908
32.94	11.6844
33.16	54.1178
33.38	23.4808
33.6	20.0402
33.82	23.0535
34.04	17.2377
34.26	20.2628
34.48	14.2844
34.7	9.41596
34.92	24.6274
35.14	27.3268
35.36	29.5776
35.58	23.6453
35.8	12.8901
36.02	11.5406
36.24	16.9479
36.46	48.2433
36.68	4.28081
36.9	13.2683
37.12	16.9745
37.34	15.9566
37.56	13.2108
37.78	15.1727
38	15.912
38.22	16.5641
38.44	17.3244
38.66	38.3164
38.88	36.2385
39.1	14.5453
39.32	16.5725
39.54	9.80184
39.76	10.9457
39.98	6.25872
40.2	25.6457
40.42	7.68322
40.64	7.11272
40.86	7.96807
41.08	17.2372
41.3	1.40469
41.52	0.009827
41.74	24.6606
41.96	8.05537
42.18	3.25344
42.4	7.96334
42.62	6.3517
42.84	28.6865
43.06	21.5313
43.28	50.1364
43.5	44.4786
43.72	18.0326
43.94	13.4111
44.16	5.87429
44.38	13.4067
44.6	23.7695
44.82	21.9024
45.04	32.6207
45.26	31.3292
45.48	9.5701
45.7	38.0528
45.92	5.86595
46.14	11.4647
46.36	16.424
46.58	28.5008
46.8	10.453
47.02	34.114
47.24	15.37
47.46	23.9754
47.68	2.12588
47.9	21.1969
48.12	26.3337
48.34	29.7136
48.56	14.4385
48.78	24.6583
49	2.80017
49.22	27.8855
49.44	0.943787
49.66	8.60317
49.88	0.537003
50.1	10.3707
50.32	4.869
50.54	21.6609
50.76	26.6349
50.98	3.32861
51.2	13.6188
51.42	23.5692
51.64	25.4167
51.86	23.9303
52.08	9.61351
52.3	29.5808
52.52	43.0196
52.74	10.1861
52.96	30.1991
53.18	5.2588
53.4	25.7905
53.62	12.0845
53.84	9.27731
54.06	19.2028
54.28	17.069
54.5	26.4671
54.72	50.4521
54.94	19.7794
55.16	5.56031
55.38	19.5416
55.6	13.8826
55.82	34.1898
56.04	11.5771
56.26	6.03728
56.48	9.65232
56.7	18.7477
56.92	17.8546
57.14	44.1495
57.36	24.267
57.58	40.2826
57.8	34.5804
58.02	30.6704
58.24	8.60466
58.46	10.5049
58.68	21.6044
58.9	5.38036
59.12	17.5967
59.34	29.6536
59.56	15.9952
59.78	27.8463
60	22.5954
60.22	12.453
60.44	0.437561
60.66	2.03084
60.88	23.187
61.1	25.3776
61.32	8.06148
61.54	12.8829
61.76	10.5365
61.98	37.4049
62.2	20.7755
62.42	12.0839
62.64	3.46226
62.86	30.0344
63.08	25.8525
63.3	19.2135
63.52	30.0837
63.74	25.7946
63.96	3.06327
64.18	11.0253
64.4	32.4235
64.62	9.34654
64.84	32.6334
65.06	23.2644
65.28	11.9787
65.5	2.85841
65.72	17.5919
65.94	12.3593
66.16	26.2292
66.38	13.1884
66.6	25.4015
66.82	8.62862
67.04	0.846199
67.26	21.3757
67.48	23.2009
67.7	14.8798
67.92	10.5407
68.14	13.385
68.36	23.5189
68.58	3.46897
68.8	13.5067
69.02	4.50617
69.24	17.2412
69.46	13.8314
69.68	13.939
69.9	23.7574
70.12	17.2187
70.34	12.1623
70.56	5.69727
70.78	5.81258
71	20.3241
71.22	2.74905
71.44	10.4735
71.66	4.56696
71.88	19.1593
72.1	27.1887
72.32	10.2777
72.54	23.8936
72.76	28.743
72.98	13.1517
73.2	19.6143
73.42	29.5277
73.64	3.73535
73.86	30.3543
74.08	15.3888
74.3	21.6858
74.52	22.6323
74.74	18.2308
74.96	3.63086
75.18	16.1919
75.4	29.9873
75.62	0.940384
75.84	11.6104
76.06	9.97758
76.28	7.66775
76.5	2.04786
76.72	19.8147
76.94	18.7349
77.16	15.8194
77.38	11.7058
77.6	15.3202
77.82	12.0665
78.04	31.7593
78.26	30.0677
78.48	9.86488
78.7	36.4438
78.92	9.24401
79.14	11.9859
79.36	24.7042
79.58	0.409515
79.8	21.0984
80.02	12.7786
80.24	20.0337
80.46	32.3584
80.68	28.4097
80.9	25.586
81.12	26.403
81.34	9.82748
81.56	38.592
81.78	9.17615
82	28.6121
82.22	23.7542
82.44	13.8862
82.66	5.08693
82.88	6.26554
83.1	18.2067
83.32	0.409714
83.54	18.2976
83.76	9.44676
83.98	11.6211
84.2	14.5044
84.42	6.10111
84.64	14.2301
84.86	15.0259
85.08	2.9808
85.3	14.7931
85.52	18.7566
85.74	17.5658
85.96	10.6442
86.18	8.69708
86.4	12.731
86.62	18.6938
86.84	2.10593
87.06	3.77829
87.28	11.5796
87.5	15.0564
87.72	18.5936
87.94	21.8582
88.16	17.8357
88.38	13.1047
88.6	19.4102
88.82	7.69924
89.04	24.8707
89.26	2.88599
89.48	27.5563
89.7	22.6447
89.92	17.9456
