Measurement: Powder, Xray Data XY Processed
Mineral: Eucairite
Rruff sample: R060639
Ideal chemistry: CuAgSe
Locality: Mina Santa Brigida, Sierra de Famatina, La Rioja, Argentina
Source: Michael Scott
Description: Black metallic coarsely crystalline massive
Diffraction sample description: Powder, using Mo radiation
Measured chemistry: Cu_1.00_Ag_1.00_Se_1.00_
Cell parameters: a: 4.081(4) b: 4.081(4) c: 6.344(5) alpha: 90 beta: 90 gamma: 90 volume: 105.6(2) crystal system: tetragonal
x	intensity
6.71	0
6.83	13.3766
6.95	7.18779
7.07	14.0314
7.19	5.20497
7.31	26.8259
7.43	20.5692
7.55	16.7869
7.67	11.8091
7.79	14.4543
7.91	15.0763
8.03	20.1447
8.15	11.3528
8.27	4.74226
8.39	12.9675
8.51	7.15916
8.63	11.0254
8.75	19.5122
8.87	10.7849
8.99	11.0021
9.11	9.33847
9.23	10.3451
9.35	2.01746
9.47	8.97627
9.59	16.6995
9.71	6.8452
9.83	26.8306
9.95	12.7763
10.07	18.1761
10.19	16.933
10.31	12.5933
10.43	15.7658
10.55	14.6335
10.67	24.6206
10.79	27.6097
10.91	26.2745
11.03	10.943
11.15	6.84244
11.27	12.8172
11.39	5.54884
11.51	8.01015
11.63	9.42143
11.75	10.0973
11.87	18.1459
11.99	12.6475
12.11	11.8149
12.23	1.59145
12.35	1.29683
12.47	1.08194
12.59	4.93744
12.71	31.6086
12.83	51.0824
12.95	36.7254
13.07	4.79935
13.19	1.70413
13.31	1.94046
13.43	0.159103
13.55	3.94879
13.67	4.77873
13.79	6.65286
13.91	20.6195
14.03	123.314
14.15	385.394
14.27	413.825
14.39	153.861
14.51	33.247
14.63	9.84291
14.75	14.4356
14.87	2.68005
14.99	6.53764
15.11	12.5636
15.23	80.2642
15.35	265.112
15.47	506.409
15.59	586.797
15.71	433.001
15.83	168.82
15.95	57.8878
16.07	104.642
16.19	258.816
16.31	331.224
16.43	214.499
16.55	84.3674
16.67	35.6654
16.79	26.4629
16.91	12.0066
17.03	9.2635
17.15	5.83063
17.27	3.65776
17.39	0.373856
17.51	1.10147
17.63	2.89516
17.75	1.99327
17.87	1.58823
17.99	0.969391
18.11	6.18681
18.23	0.186798
18.35	3.6702
18.47	7.63658
18.59	6.248
18.71	33.793
18.83	134.743
18.95	445.55
19.07	804.07
19.19	765.541
19.31	443.52
19.43	222.086
19.55	98.843
19.67	60.0255
19.79	79.5315
19.91	131.395
20.03	199.336
20.15	277.237
20.27	259.515
20.39	188.966
20.51	131.149
20.63	62.5223
20.75	29.9421
20.87	20.5494
20.99	14.0469
21.11	9.62329
21.23	10.6301
21.35	6.74991
21.47	7.47652
21.59	15.0036
21.71	51.2306
21.83	87.1044
21.95	61.1825
22.07	40.313
22.19	25.0282
22.31	31.3622
22.43	26.3059
22.55	7.46086
22.67	0.265167
22.79	4.08797
22.91	1.09248
23.03	7.96638
23.15	13.1798
23.27	15.3459
23.39	11.1213
23.51	11.8261
23.63	10.5722
23.75	28.1501
23.87	44.973
23.99	46.9689
24.11	24.5997
24.23	10.5724
24.35	6.18715
24.47	4.71799
24.59	5.14105
24.71	2.05457
24.83	4.16936
24.95	11.3315
25.07	11.9602
25.19	5.52519
25.31	1.72147
25.43	3.97824
25.55	21.6
25.67	60.097
25.79	136.01
25.91	180.067
26.03	142.917
26.15	74.5572
26.27	26.0162
26.39	13.672
26.51	29.8757
26.63	34.642
26.75	20.9918
26.87	15.2542
26.99	0.437851
27.11	8.86778
27.23	2.72668
27.35	7.13225
27.47	3.48965
27.59	4.34026
27.71	18.4589
27.83	54.7139
27.95	101.461
28.07	111.982
28.19	90.2691
28.31	56.6302
28.43	43.6484
28.55	35.9234
28.67	14.8493
28.79	4.39481
28.91	3.10545
29.03	0.079651
29.15	1.12323
29.27	3.3373
29.39	3.97006
29.51	14.8448
29.63	44.353
29.75	74.071
29.87	68.5289
29.99	47.7878
30.11	19.3237
30.23	17.5335
30.35	33.4087
30.47	38.9674
30.59	32.0857
30.71	35.4208
30.83	31.4129
30.95	25.2986
31.07	32.8638
31.19	47.4866
31.31	42.0657
31.43	27.8203
31.55	8.63765
31.67	4.23697
31.79	4.7352
31.91	11.6686
32.03	3.77161
32.15	14.7094
32.27	24.55
32.39	34.1784
32.51	32.9251
32.63	23.4316
32.75	25.2016
32.87	34.5683
32.99	53.5958
33.11	67.947
33.23	54.6168
33.35	42.4712
33.47	17.1133
33.59	3.93181
33.71	7.07823
33.83	6.35901
33.95	17.8544
34.07	40.231
34.19	70.5513
34.31	83.0052
34.43	117.138
34.55	134.693
34.67	113.309
34.79	87.6287
34.91	50.3663
35.03	29.4074
35.15	24.1389
35.27	15.0316
35.39	5.48407
35.51	4.70335
35.63	7.49655
35.75	5.03166
35.87	8.50713
35.99	13.2342
36.11	16.4826
36.23	25.2304
36.35	25.2831
36.47	21.2191
36.59	18.4641
36.71	12.6049
36.83	10.7136
36.95	10.4414
37.07	0.225677
37.19	4.87707
37.31	3.74274
37.43	0.250015
37.55	0.995178
37.67	1.63258
37.79	4.85564
37.91	11.6028
38.03	21.3873
38.15	23.35
38.27	20.8114
38.39	16.7372
38.51	14.0932
38.63	13.8614
38.75	17.1725
38.87	16.1844
38.99	12.6891
39.11	6.30278
39.23	6.87929
39.35	3.85602
39.47	4.66351
39.59	1.45801
39.71	8.95656
39.83	31.1947
39.95	32.3163
40.07	29.7691
40.19	27.8993
40.31	13.2811
40.43	11.8963
40.55	19.3856
40.67	8.80679
40.79	5.24406
40.91	7.38646
41.03	12.1844
41.15	6.21622
41.27	6.44576
41.39	5.26736
41.51	11.7276
41.63	7.91696
41.75	6.67926
41.87	9.82732
41.99	7.19319
42.11	10.5578
42.23	7.06364
42.35	2.86691
42.47	6.57922
42.59	3.56859
42.71	2.72642
42.83	3.41658
42.95	11.706
43.07	7.03719
43.19	0.717758
43.31	3.11975
43.43	1.74826
43.55	2.30774
43.67	0.502472
43.79	4.94064
43.91	4.54997
44.03	2.05402
44.15	0.258011
44.27	5.36018
44.39	9.00035
44.51	6.62341
44.63	11.0084
44.75	11.7592
44.87	8.644
44.99	21.5946
45.11	17.7102
45.23	22.7406
45.35	24.5465
45.47	21.6503
45.59	18.1563
45.71	11.5915
45.83	14.528
45.95	8.28126
46.07	11.0771
46.19	10.7386
46.31	7.82385
46.43	12.3627
46.55	14.6766
46.67	17.3883
46.79	11.818
46.91	12.7098
47.03	10.2745
47.15	7.575
47.27	6.33984
47.39	8.0977
47.51	9.06157
47.63	10.4175
47.75	8.57605
47.87	3.89984
47.99	1.10196
48.11	5.37436
48.23	1.28184
48.35	4.96036
48.47	5.39676
48.59	6.76077
48.71	0.342728
48.83	6.2379
48.95	11.1967
49.07	11.1712
49.19	0.306961
49.31	0.375183
49.43	6.98114
49.55	8.23296
49.67	9.93642
49.79	6.21626
49.91	7.50639
50.03	8.98811
50.15	11.3452
50.27	12.052
50.39	5.3633
50.51	9.63898
50.63	3.88759
50.75	2.76387
50.87	1.68272
50.99	1.1969
