Measurement: Powder, Xray Data XY Processed
Mineral: Euclase
Rruff sample: R050032
Ideal chemistry: BeAlSiO_4_(OH)
Locality: Minas Gerais, Brazil
Source: University of Arizona Mineral Museum
Description: Colorless crystal fragments
Diffraction sample description: Powder
Measured chemistry: Be_1.00_Al_1.00_Si_1.00_O_4_(OH)
Cell parameters: a: 4.7792(1) b: 14.3318(3) c: 4.6316(1) alpha: 90. beta: 100.290(2) gamma: 90. volume: 312.143(9) crystal system: monoclinic
x	intensity
5	0
5.22	14.9751
5.44	9.30982
5.66	12.9967
5.88	15.7949
6.1	13.5036
6.32	20.9664
6.54	10.5448
6.76	15.1507
6.98	8.64034
7.2	2.89739
7.42	0.880857
7.64	2.18681
7.86	3.38981
8.08	3.53956
8.3	2.11577
8.52	10.8949
8.74	9.99276
8.96	5.35403
9.18	4.88511
9.4	5.28575
9.62	1.85586
9.84	10.3579
10.06	0.52813
10.28	10.9831
10.5	0.940348
10.72	0.028409
10.94	6.80256
11.16	53.5436
11.38	2.21584
11.6	1.52094
11.82	7.07231
12.04	10.4492
12.26	221.975
12.48	147.929
12.7	15.8265
12.92	9.54816
13.14	9.64094
13.36	7.23791
13.58	8.81342
13.8	0.286405
14.02	6.86778
14.24	4.72815
14.46	6.45987
14.68	3.00075
14.9	4.62295
15.12	6.03696
15.34	4.71201
15.56	2.96959
15.78	9.20982
16	7.31652
16.22	2.32043
16.44	2.17526
16.66	2.71167
16.88	6.70372
17.1	5.64737
17.32	4.79514
17.54	2.79633
17.76	3.69418
17.98	10.7104
18.2	2.51313
18.42	4.33196
18.64	3.96239
18.86	12.8092
19.08	6.5479
19.3	4.37566
19.52	100.246
19.74	2.03804
19.96	48.5281
20.18	5.08347
20.4	8.98676
20.62	9.35641
20.84	0.529727
21.06	13.9088
21.28	0.930741
21.5	1.04144
21.72	3.99604
21.94	3.86261
22.16	2.46792
22.38	11.2362
22.6	5.68667
22.82	11.3521
23.04	46.0516
23.26	68.1447
23.48	6.63556
23.7	11.2828
23.92	3.94496
24.14	1.87752
24.36	2.24375
24.58	0.594315
24.8	29.7285
25.02	12.0788
25.24	14.0027
25.46	60.9742
25.68	3.40389
25.9	5.15544
26.12	6.01353
26.34	1.16412
26.56	2.64034
26.78	4.45864
27	32.44
27.22	12.4048
27.44	23.3947
27.66	465.226
27.88	24.1743
28.1	12.374
28.32	14.0957
28.54	10.7616
28.76	7.04321
28.98	0.402694
29.2	3.55405
29.42	7.06231
29.64	7.05474
29.86	2.55184
30.08	4.21516
30.3	54.8256
30.52	12.4087
30.74	3.45423
30.96	12.5338
31.18	19.076
31.4	40.6354
31.62	16.5533
31.84	130.322
32.06	15.9421
32.28	188.797
32.5	12.3509
32.72	2.98267
32.94	6.73526
33.16	4.57959
33.38	8.43463
33.6	5.02004
33.82	8.32363
34.04	4.44808
34.26	7.01905
34.48	5.90681
34.7	6.26137
34.92	5.22077
35.14	18.0077
35.36	139.54
35.58	13.9639
35.8	0.450085
36.02	13.269
36.24	1.53243
36.46	3.63433
36.68	153.606
36.9	48.2905
37.12	15.3475
37.34	7.15132
37.56	5.07687
37.78	16.3494
38	3.63069
38.22	42.1229
38.44	15.9125
38.66	10.6008
38.88	1.41491
39.1	5.39907
39.32	4.72401
39.54	48.1606
39.76	12.2543
39.98	82.2122
40.2	39.1949
40.42	21.1066
40.64	2.20403
40.86	1.13676
41.08	5.01077
41.3	22.6841
41.52	5.78531
41.74	5.90913
41.96	4.49342
42.18	4.51702
42.4	7.46998
42.62	2.29649
42.84	27.4611
43.06	7.25208
43.28	11.5286
43.5	35.8141
43.72	45.4696
43.94	3.38114
44.16	12.2678
44.38	21.1537
44.6	6.91484
44.82	0.034567
45.04	8.78885
45.26	24.4028
45.48	109.271
45.7	52.331
45.92	4.41337
46.14	1.91997
46.36	9.92626
46.58	31.7616
46.8	0.780011
47.02	9.10535
47.24	15.3682
47.46	0.083671
47.68	5.21941
47.9	2.54691
48.12	2.6384
48.34	126.12
48.56	27.0498
48.78	17.9354
49	4.50222
49.22	8.37118
49.44	14.683
49.66	3.02187
49.88	5.13283
50.1	13.173
50.32	7.08461
50.54	28.1535
50.76	9.32931
50.98	79.6683
51.2	59.2896
51.42	21.2436
51.64	22.4399
51.86	8.20235
52.08	8.55916
52.3	12.7945
52.52	1.53279
52.74	9.98677
52.96	3.39789
53.18	3.05109
53.4	10.0363
53.62	7.98043
53.84	1.18979
54.06	9.40774
54.28	11.7727
54.5	8.55495
54.72	19.3653
54.94	27.9927
55.16	18.1704
55.38	1.29482
55.6	0.731329
55.82	8.80015
56.04	7.93741
56.26	4.19105
56.48	11.4413
56.7	49.6995
56.92	6.8456
57.14	8.38332
57.36	5.58151
57.58	1.59453
57.8	8.95774
58.02	4.10415
58.24	5.33729
58.46	2.46313
58.68	5.42206
58.9	2.35471
59.12	18.0795
59.34	13.8252
59.56	6.25178
59.78	0.519015
60	9.85661
60.22	15.0609
60.44	0.442873
60.66	8.91607
60.88	9.41334
61.1	11.9771
61.32	8.64538
61.54	15.9573
61.76	11.199
61.98	47.6708
62.2	18.0826
62.42	1.79192
62.64	0.42768
62.86	4.79405
63.08	10.3724
63.3	6.6639
63.52	5.89017
63.74	3.04837
63.96	6.66151
64.18	5.62541
64.4	1.62223
64.62	15.4593
64.84	39.7272
65.06	21.2893
65.28	3.0981
65.5	13.624
65.72	7.33874
65.94	5.5171
66.16	7.15668
66.38	23.7963
66.6	4.37277
66.82	9.7078
67.04	1.99864
67.26	13.9796
67.48	12.5688
67.7	1.19873
67.92	23.004
68.14	41.4738
68.36	26.9422
68.58	44.8764
68.8	48.1229
69.02	2.12047
69.24	7.5136
69.46	10.9464
69.68	12.8208
69.9	13.1479
70.12	10.1077
70.34	15.5155
70.56	11.4186
70.78	3.91103
71	0.634388
71.22	0.458817
71.44	21.8133
71.66	16.3795
71.88	24.7269
72.1	47.4862
72.32	12.8866
72.54	4.04313
72.76	7.15559
72.98	0.276777
73.2	8.37416
73.42	1.46206
73.64	1.39156
73.86	10.772
74.08	2.4999
74.3	6.50649
74.52	8.06772
74.74	9.81808
74.96	0.970475
75.18	17.5816
75.4	15.7783
75.62	10.98
75.84	3.39399
76.06	6.78642
76.28	5.10086
76.5	4.24464
76.72	9.34701
76.94	9.04656
77.16	9.09621
77.38	7.04643
77.6	3.84047
77.82	3.77874
78.04	3.58998
78.26	7.38831
78.48	8.03654
78.7	2.08762
78.92	10.3814
79.14	8.35906
79.36	6.4862
79.58	15.4695
79.8	2.57097
80.02	4.48887
80.24	10.6893
80.46	4.69451
80.68	5.69379
80.9	10.7038
81.12	3.61033
81.34	4.40454
81.56	14.415
81.78	2.44255
82	11.7481
82.22	9.58833
82.44	0.332938
82.66	3.11162
82.88	8.0491
83.1	9.97014
83.32	4.06827
83.54	5.17128
83.76	8.94619
83.98	21.9328
84.2	15.7649
84.42	7.68851
84.64	2.23344
84.86	12.6306
85.08	4.73873
85.3	3.04893
85.52	7.26504
85.74	0.762821
85.96	2.09242
86.18	10.186
86.4	6.25621
86.62	7.66985
86.84	1.50766
87.06	4.50409
87.28	18.4477
87.5	5.54232
87.72	2.44107
87.94	8.44772
88.16	4.48219
88.38	9.54411
88.6	9.69945
88.82	3.98184
89.04	5.91292
89.26	3.33813
89.48	4.54364
89.7	0.874868
89.92	8.30065
