Measurement: Powder, Xray Data XY Processed
Mineral: Eudialyte
Rruff sample: R050230
Ideal chemistry: Na_15_Ca_6_Fe^2+^_3_Zr^4+^_3_Si(Si_25_O_73_)(O,OH,H_2_O)_3_(Cl,OH)_2_
Locality: Kipawa alkaline complex, near Sheffield Lake, Villedieu Township, Temiscamingue County, Quebec, Canada
Source: Marcus Origlieri
Description: Massive aggregate of red crystals
Diffraction sample description: Powder
Measured chemistry: (Na_14.50_K_0.35_Ca_0.15_)_Σ=15_Ca_6.00_(Fe_1.86_Mn_1.01_Mg_0.13_)_Σ=3_(Zr_2.91_Ti_0.09_)_3_(Si_0.94_Nb_0.06_)_Σ=1.00_(Si_25.00_O_73_)(OH)_1.10_(H_2_O)_1.90_)_Σ=3_(Cl_1.17_(OH)_0.83_)_Σ=2_
Cell parameters: a: 14.2522(8) b: 14.2522(8) c: 30.267(3) alpha: 90 beta: 90 gamma: 120 volume: 5324.3(0) crystal system: hexagonal
x	intensity
5	0
5.22	6.368
5.44	6.653
5.66	9.084
5.88	7.28
6.1	20.418
6.32	3.687
6.54	5.248
6.76	6.686
6.98	12.365
7.2	1.451
7.42	3.015
7.64	5.262
7.86	6.191
8.08	7.691
8.3	12.782
8.52	2.706
8.74	15.911
8.96	3.7
9.18	12.077
9.4	5.387
9.62	7.746
9.84	6.997
10.06	18.221
10.28	11.862
10.5	17.835
10.72	4.74
10.94	5.526
11.16	16.88
11.38	15.347
11.6	3.166
11.82	11.576
12.04	6.438
12.26	6.14
12.48	61.419
12.7	6.93
12.92	16.016
13.14	2.987
13.36	11.071
13.58	17.112
13.8	28.304
14.02	11.602
14.24	2.088
14.46	10.82
14.68	65.75
14.9	0.192
15.12	9.726
15.34	3.452
15.56	69.284
15.78	17.609
16	12.321
16.22	20.448
16.44	8.343
16.66	7.718
16.88	7.013
17.1	7.806
17.32	10.514
17.54	2.561
17.76	4.503
17.98	7.261
18.2	6.919
18.42	3.232
18.64	25.433
18.86	10.308
19.08	7.308
19.3	17.892
19.52	5.895
19.74	0.531
19.96	4.221
20.18	3.557
20.4	18.723
20.62	106.306
20.84	0.929
21.06	8.632
21.28	3.377
21.5	21.831
21.72	24.249
21.94	7.354
22.16	6.28
22.38	45.544
22.6	13.703
22.82	0.124
23.04	0.589
23.26	9.569
23.48	23.405
23.7	15.492
23.92	0.284
24.14	2.464
24.36	0.503
24.58	15.094
24.8	8.238
25.02	49.368
25.24	23.881
25.46	4.354
25.68	3.665
25.9	1.071
26.12	10.867
26.34	16.29
26.56	22.36
26.78	25.15
27	1.34
27.22	1.517
27.44	12.977
27.66	84.771
27.88	3.819
28.1	46.951
28.32	37.092
28.54	10.543
28.76	10.704
28.98	3.173
29.2	18.472
29.42	37.766
29.64	15.254
29.86	20.846
30.08	101.871
30.3	5.689
30.52	10.559
30.74	35.853
30.96	14.315
31.18	25.52
31.4	113.56
31.62	10.368
31.84	4.119
32.06	8.312
32.28	4.559
32.5	5.956
32.72	5.373
32.94	27.587
33.16	6.843
33.38	37.862
33.6	12.29
33.82	19.141
34.04	8.264
34.26	7.52
34.48	46.888
34.7	15.305
34.92	6.419
35.14	6.413
35.36	35.767
35.58	20.537
35.8	15.934
36.02	3.78
36.24	7.183
36.46	10.56
36.68	10.859
36.9	12.099
37.12	5.384
37.34	5.279
37.56	6.14
37.78	11.109
38	12.897
38.22	7.024
38.44	6.412
38.66	12.246
38.88	16.243
39.1	2.988
39.32	9.848
39.54	8.713
39.76	15.622
39.98	11.335
40.2	2.229
40.42	3.658
40.64	11.083
40.86	10.575
41.08	17.178
41.3	12.61
41.52	7.399
41.74	9.613
41.96	21.413
42.18	11.625
42.4	14.031
42.62	11.133
42.84	6.552
43.06	12.407
43.28	5.019
43.5	0.835
43.72	18.614
43.94	23.965
44.16	16.113
44.38	7.42
44.6	19.253
44.82	13
45.04	8.08
45.26	3.279
45.48	1.96
45.7	22.676
45.92	9.895
46.14	12.769
46.36	12.744
46.58	5.221
46.8	21.054
47.02	11.104
47.24	9.759
47.46	16.82
47.68	12.098
47.9	18.131
48.12	1.72
48.34	8.629
48.56	15.4
48.78	7.798
49	5.255
49.22	9.535
49.44	28.369
49.66	24.792
49.88	4.754
50.1	8.609
50.32	6.802
50.54	1.607
50.76	11.461
50.98	5.402
51.2	24.143
51.42	29.111
51.64	24.094
51.86	15.567
52.08	19.069
52.3	5.229
52.52	8.452
52.74	12.649
52.96	7.832
53.18	14.204
53.4	17.421
53.62	13.456
53.84	18.049
54.06	14.096
54.28	4.077
54.5	12.207
54.72	8.387
54.94	0.422
55.16	9.791
55.38	0.4
55.6	9.292
55.82	17.473
56.04	10.506
56.26	4.577
56.48	6.405
56.7	12.929
56.92	4.704
57.14	22.92
57.36	12.734
57.58	10.493
57.8	6.665
58.02	14.191
58.24	8.081
58.46	1.986
58.68	14.938
58.9	1.059
59.12	7.376
59.34	9.245
59.56	16.865
59.78	8.061
60	9.465
60.22	10.768
60.44	18.56
60.66	12.752
60.88	15.981
61.1	14.246
61.32	7.213
61.54	7.146
61.76	15.115
61.98	2.574
62.2	0.449
62.42	7.832
62.64	12.297
62.86	12.146
63.08	1.209
63.3	9.173
63.52	9.318
63.74	0.309
63.96	7.665
64.18	8.644
64.4	1.633
64.62	7.71
64.84	0.615
65.06	3.969
65.28	13.228
65.5	7.461
65.72	11.413
65.94	7.331
66.16	13.577
66.38	13.854
66.6	5.041
66.82	5.088
67.04	12.979
67.26	4.17
67.48	7.62
67.7	2.542
67.92	10.135
68.14	8.065
68.36	20.037
68.58	11.611
68.8	9.413
69.02	3.445
69.24	7.505
69.46	7.778
69.68	3.029
69.9	6.47
70.12	10.017
70.34	13.46
70.56	13.182
70.78	0.522
71	4.875
71.22	1.87
71.44	8.128
71.66	9.275
71.88	3.417
72.1	7.904
72.32	8.964
72.54	7.589
72.76	10.737
72.98	5.39
73.2	2.395
73.42	1.535
73.64	21.683
73.86	1.294
74.08	2.72
74.3	3.306
74.52	0.42
74.74	12.646
74.96	6.682
75.18	6.619
75.4	10.854
75.62	3.888
75.84	0.021
76.06	3.304
76.28	8.447
76.5	2.839
76.72	10.944
76.94	7.349
77.16	11.303
77.38	6.496
77.6	7.443
77.82	6.216
78.04	11.068
78.26	4.553
78.48	6.653
78.7	5.416
78.92	0.878
79.14	10.625
79.36	5.406
79.58	4.238
79.8	6.169
80.02	4.18
80.24	0.596
80.46	4.526
80.68	12.827
80.9	17.89
81.12	9.476
81.34	5.741
81.56	4.908
81.78	4.104
82	12.308
82.22	2.38
82.44	5.995
82.66	4.083
82.88	8.99
83.1	4.925
83.32	3.745
83.54	6.588
83.76	2.547
83.98	6.515
84.2	6.412
84.42	11.392
84.64	8.222
84.86	8.923
85.08	8.828
85.3	5.766
85.52	0.018
85.74	3.715
85.96	6.744
86.18	5.755
86.4	2.62
86.62	9.105
86.84	9.123
87.06	5.995
87.28	7.221
87.5	5.378
87.72	10.566
87.94	11.881
88.16	4.082
88.38	6.387
88.6	1.4
88.82	16.765
89.04	5.762
89.26	7.12
89.48	6.903
89.7	12.697
89.92	8.874
