Measurement: Powder, Xray Data XY Processed
Mineral: Eudialyte
Rruff sample: R060035
Ideal chemistry: Na_15_Ca_6_Fe^2+^_3_Zr^4+^_3_Si(Si_25_O_73_)(O,OH,H_2_O)_3_(Cl,OH)_2_
Locality: Chibini, Kola Peninsula, Russia
Source: University of Arizona Mineral Museum
Description: Deep pink coarsely crystalline
Diffraction sample description: Powder
Measured chemistry: (Na_14.86_K_0.14_)_Σ=15_Ca_6.00_(Fe_1.52_Mn_1.48_)_Σ=3_(Zr_2.82_Ti_0.18_)_Σ=3_(Si_0.93_Nb_0.07_)_Σ=1_(Si_25.00_O_73_)((OH)_1.01_(H_2_O)_1.99_)_Σ=3_(Cl_1.65_(OH)_0.35_)_Σ=2_
Cell parameters: a: 14.2337(3) b: 14.2337(3) c: 30.202(1) alpha: 90 beta: 90 gamma: 120 volume: 5299.0(0) crystal system: hexagonal
x	intensity
5	0
5.22	9.826
5.44	13.467
5.66	1.395
5.88	1.757
6.1	7.905
6.32	11.418
6.54	8.743
6.76	4.048
6.98	0.444
7.2	17.13
7.42	9.87
7.64	7.27
7.86	14.723
8.08	15.207
8.3	6.597
8.52	3.377
8.74	13.515
8.96	7.882
9.18	10.187
9.4	10.101
9.62	0.802
9.84	4.854
10.06	10.055
10.28	10.131
10.5	3.434
10.72	6.614
10.94	8.401
11.16	5.357
11.38	9.369
11.6	7.301
11.82	2.262
12.04	3.177
12.26	2.673
12.48	47.239
12.7	8.143
12.92	9.853
13.14	1.257
13.36	1.953
13.58	3.809
13.8	40.904
14.02	16.246
14.24	1.444
14.46	4.459
14.68	2.183
14.9	0.659
15.12	7.672
15.34	4.789
15.56	42.919
15.78	1.51
16	4.651
16.22	2.506
16.44	28.538
16.66	4.381
16.88	1.493
17.1	9.574
17.32	13.787
17.54	2.126
17.76	16.901
17.98	4.253
18.2	2.301
18.42	6.307
18.64	13.366
18.86	7.269
19.08	11.118
19.3	10.844
19.52	10.594
19.74	2.938
19.96	2.69
20.18	9.294
20.4	0.828
20.62	36.597
20.84	15.395
21.06	2.251
21.28	3.137
21.5	1.214
21.72	35.405
21.94	8.439
22.16	11.468
22.38	9.32
22.6	7.325
22.82	5.711
23.04	4.687
23.26	3.764
23.48	37.555
23.7	4.78
23.92	2.615
24.14	4.404
24.36	8.344
24.58	10.442
24.8	17.913
25.02	9.986
25.24	49.666
25.46	5.693
25.68	4.462
25.9	4.36
26.12	2.238
26.34	34.214
26.56	6.064
26.78	29.915
27	4.641
27.22	4.987
27.44	7.944
27.66	6.308
27.88	24.043
28.1	43.178
28.32	36.096
28.54	6.61
28.76	0.491
28.98	8.278
29.2	11.05
29.42	19.862
29.64	14.952
29.86	7.238
30.08	120.957
30.3	19.754
30.52	10.649
30.74	4.126
30.96	4.71
31.18	5.814
31.4	135.604
31.62	14.917
31.84	9.154
32.06	3.182
32.28	0.223
32.5	6.26
32.72	3.406
32.94	11.706
33.16	28.568
33.38	23.205
33.6	26.105
33.82	3.807
34.04	8.908
34.26	1.772
34.48	11.299
34.7	18.462
34.92	7.155
35.14	1.553
35.36	1.71
35.58	11.765
35.8	11.011
36.02	9.285
36.24	0.715
36.46	3.995
36.68	11.804
36.9	4.814
37.12	0
37.34	7.635
37.56	3.194
37.78	11.868
38	16.843
38.22	8.984
38.44	5.734
38.66	2.434
38.88	14.376
39.1	3.812
39.32	8.966
39.54	4.804
39.76	5.053
39.98	16.045
40.2	10.072
40.42	3.859
40.64	5.379
40.86	9.031
41.08	0.629
41.3	15.271
41.52	3.65
41.74	3.492
41.96	26.35
42.18	4.121
42.4	6.684
42.62	16.667
42.84	2.753
43.06	0.918
43.28	8.169
43.5	0.531
43.72	10.926
43.94	15.093
44.16	6.058
44.38	9.53
44.6	2.712
44.82	0.824
45.04	10.293
45.26	2.389
45.48	5.465
45.7	2.719
45.92	9.702
46.14	5.545
46.36	4.874
46.58	6.698
46.8	8.567
47.02	8.458
47.24	0.559
47.46	10.635
47.68	13.741
47.9	11.92
48.12	4.973
48.34	8.975
48.56	8.06
48.78	11.68
49	6.607
49.22	1.027
49.44	8.549
49.66	13.337
49.88	7.273
50.1	2.932
50.32	4.533
50.54	7.941
50.76	16.832
50.98	0.201
51.2	7.901
51.42	28.902
51.64	21.812
51.86	10.551
52.08	12.65
52.3	8.611
52.52	4.878
52.74	2.2
52.96	7.408
53.18	2.309
53.4	6.466
53.62	16.429
53.84	4.366
54.06	1.715
54.28	3.768
54.5	1.044
54.72	12.957
54.94	8.964
55.16	4.776
55.38	9.94
55.6	6.883
55.82	5.687
56.04	14.504
56.26	6.25
56.48	7.205
56.7	1.362
56.92	1.113
57.14	16.035
57.36	12.145
57.58	1.551
57.8	17.196
58.02	1.356
58.24	3.883
58.46	5.069
58.68	2.641
58.9	7.999
59.12	4.455
59.34	15.822
59.56	13.959
59.78	6.818
60	9.565
60.22	1.635
60.44	0.142
60.66	8.727
60.88	0.297
61.1	5.582
61.32	15.815
61.54	9.582
61.76	8.432
61.98	5.642
62.2	2.786
62.42	1.155
62.64	12.22
62.86	13.947
63.08	10.877
63.3	9.123
63.52	10.138
63.74	2.106
63.96	11.817
64.18	5.936
64.4	2.381
64.62	4.393
64.84	5.576
65.06	19.345
65.28	9.265
65.5	4.225
65.72	5.276
65.94	2.337
66.16	9.92
66.38	5.301
66.6	9.081
66.82	2.165
67.04	5.597
67.26	4.255
67.48	17.106
67.7	9.148
67.92	13.014
68.14	9.732
68.36	8.96
68.58	20.357
68.8	5.145
69.02	5.954
69.24	17.865
69.46	4.395
69.68	0.611
69.9	13.516
70.12	6.657
70.34	1.894
70.56	11.088
70.78	9.411
71	10.095
71.22	2.636
71.44	3.951
71.66	9.232
71.88	3.749
72.1	4.004
72.32	2.836
72.54	6.161
72.76	8.316
72.98	2.614
73.2	4.504
73.42	5.223
73.64	8.322
73.86	6.282
74.08	7.15
74.3	11.84
74.52	3.715
74.74	9.651
74.96	14.412
75.18	7.358
75.4	2.436
75.62	9.495
75.84	5.096
76.06	10.09
76.28	3.562
76.5	9.674
76.72	12.651
76.94	1.257
77.16	5.844
77.38	4.195
77.6	13.338
77.82	8.31
78.04	6.201
78.26	6.189
78.48	8.484
78.7	7.226
78.92	1.271
79.14	3.588
79.36	6.529
79.58	12.457
79.8	4.229
80.02	11.985
80.24	0.325
80.46	9.564
80.68	7.458
80.9	12.151
81.12	10.906
81.34	8.854
81.56	4.668
81.78	2.61
82	13.717
82.22	7.637
82.44	4.082
82.66	13.424
82.88	6.864
83.1	7.116
83.32	6.045
83.54	1.102
83.76	3.769
83.98	6.753
84.2	0.372
84.42	7.538
84.64	1.422
84.86	10.289
85.08	2.31
85.3	9.829
85.52	6.665
85.74	4.036
85.96	1.034
86.18	10.043
86.4	3.287
86.62	2.531
86.84	6.638
87.06	15.384
87.28	2.44
87.5	12.744
87.72	8.014
87.94	8.107
88.16	0.864
88.38	8.722
88.6	7.158
88.82	7.024
89.04	1.283
89.26	12.732
89.48	1.844
89.7	6.231
89.92	4.629
