Measurement: Powder, Xray Data XY Processed
Mineral: Ezcurrite
Rruff sample: R060645
Ideal chemistry: Na_2_B_5_O_7_(OH)_3_2H_2_O
Locality: Salar del Hombre Muerto, Catamarca, Argentina
Source: Michael Scott
Description: Colorless prismatic fragment
Diffraction sample description: Powder
Measured chemistry: Na_2.00_B_5_O_7_(OH)_3_Â·2H_2_O ;trace amounts of Si; B and OH not measured but estimated by stoichiometry
Cell parameters: a: 8.605(2) b: 9.611(2) c: 6.5863(6) alpha: 102.67(2) beta: 107.57(1) gamma: 71.45(1) volume: 487.73(9) crystal system: triclinic
x	intensity
5	0
5.22	2.68464
5.44	4.71781
5.66	6.66926
5.88	6.81218
6.1	11.5385
6.32	8.14127
6.54	13.5247
6.76	3.98899
6.98	5.06601
7.2	4.92351
7.42	4.82878
7.64	13.6074
7.86	1.62045
8.08	3.18249
8.3	12.9271
8.52	8.62816
8.74	3.11413
8.96	2.36741
9.18	6.69997
9.4	5.45782
9.62	3.83533
9.84	76.5856
10.06	2.81643
10.28	10.9589
10.5	7.88926
10.72	6.98658
10.94	10.0093
11.16	3.79076
11.38	2.31858
11.6	18.2119
11.82	17.3151
12.04	9.07018
12.26	13.2432
12.48	23.7393
12.7	366.727
12.92	62.1112
13.14	23.5267
13.36	8.10289
13.58	6.57421
13.8	2.72407
14.02	27.441
14.24	9.03623
14.46	21.194
14.68	13.3811
14.9	1.46812
15.12	13.6895
15.34	3.79264
15.56	2.19699
15.78	13.7743
16	5.94343
16.22	24.5208
16.44	6.61593
16.66	5.53488
16.88	28.6819
17.1	11.3308
17.32	13.945
17.54	9.67039
17.76	2.36774
17.98	24.3404
18.2	8.98742
18.42	18.4824
18.64	18.5207
18.86	7.89011
19.08	8.0533
19.3	2.04284
19.52	9.52435
19.74	101.28
19.96	9.52805
20.18	9.87202
20.4	19.5772
20.62	11.0315
20.84	8.7291
21.06	24.3421
21.28	25.6009
21.5	17.4936
21.72	5.14733
21.94	6.49191
22.16	10.9195
22.38	19.561
22.6	4.98574
22.82	6.31351
23.04	12.8687
23.26	8.78105
23.48	24.3987
23.7	9.7709
23.92	4.70033
24.14	9.81123
24.36	18.622
24.58	13.3266
24.8	0.780825
25.02	1.16595
25.24	7.69143
25.46	12.2824
25.68	16.1504
25.9	15.7294
26.12	16.1795
26.34	1.251
26.56	2.12974
26.78	0.45871
27	122.731
27.22	12.0796
27.44	28.0053
27.66	12.239
27.88	0.919369
28.1	12.6516
28.32	5.72513
28.54	241.474
28.76	296.748
28.98	205.282
29.2	25.0241
29.42	8.12587
29.64	13.6043
29.86	20.7383
30.08	17.1882
30.3	21.7069
30.52	5.62611
30.74	3.63927
30.96	5.76833
31.18	28.1862
31.4	6.13475
31.62	13.3578
31.84	22.2114
32.06	39.5779
32.28	56.3352
32.5	23.3849
32.72	21.0592
32.94	7.48165
33.16	0.493984
33.38	44.4727
33.6	21.0759
33.82	6.27191
34.04	29.046
34.26	9.35838
34.48	8.89492
34.7	29.4698
34.92	6.49908
35.14	10.367
35.36	7.46797
35.58	6.90928
35.8	15.4273
36.02	5.10734
36.24	6.12231
36.46	5.33862
36.68	8.97746
36.9	30.197
37.12	21.3325
37.34	3.67526
37.56	6.12214
37.78	7.21986
38	33.9377
38.22	68.5606
38.44	21.4748
38.66	1.15825
38.88	4.96804
39.1	13.0485
39.32	24.8647
39.54	20.6651
39.76	15.7251
39.98	15.091
40.2	18.2439
40.42	5.7144
40.64	18.4388
40.86	8.5442
41.08	19.9543
41.3	21.7384
41.52	6.92528
41.74	10.8237
41.96	4.72913
42.18	23.7631
42.4	24.6462
42.62	15.3068
42.84	17.3453
43.06	14.5153
43.28	13.9579
43.5	28.9261
43.72	3.94838
43.94	3.861
44.16	6.94447
44.38	18.913
44.6	49.5933
44.82	27.3863
45.04	31.7926
45.26	5.7377
45.48	8.36577
45.7	22.1044
45.92	7.5244
46.14	18.2737
46.36	24.649
46.58	9.52052
46.8	3.48192
47.02	14.4249
47.24	4.26555
47.46	20.0223
47.68	15.9725
47.9	14.3199
48.12	12.3722
48.34	3.9341
48.56	19.3993
48.78	30.1723
49	18.3053
49.22	15.4317
49.44	1.52331
49.66	8.85253
49.88	5.7557
50.1	13.4854
50.32	5.92896
50.54	33.3826
50.76	18.9886
50.98	26.304
51.2	14.6099
51.42	8.83141
51.64	0.080854
51.86	18.5261
52.08	8.05431
52.3	10.6837
52.52	27.2308
52.74	36.2403
52.96	22.6418
53.18	4.03699
53.4	11.1186
53.62	9.49955
53.84	5.02362
54.06	5.52421
54.28	12.5171
54.5	10.4588
54.72	10.5788
54.94	1.43206
55.16	19.0802
55.38	5.76648
55.6	11.8846
55.82	3.73234
56.04	11.9009
56.26	17.3905
56.48	9.16657
56.7	6.19021
56.92	10.4894
57.14	2.31818
57.36	4.52676
57.58	12.0401
57.8	1.58012
58.02	11.0986
58.24	11.7044
58.46	6.68249
58.68	5.05187
58.9	13.4208
59.12	7.73867
59.34	9.81238
59.56	7.50857
59.78	8.62353
60	6.89549
60.22	13.9026
60.44	6.65165
60.66	5.47276
60.88	12.0985
61.1	10.2193
61.32	25.6686
61.54	7.75546
61.76	2.78305
61.98	3.39974
62.2	14.5298
62.42	4.30897
62.64	3.26301
62.86	10.2309
63.08	1.75205
63.3	9.42055
63.52	10.6979
63.74	10.4687
63.96	0.545904
64.18	5.58782
64.4	6.55641
64.62	4.55807
64.84	9.62229
65.06	1.61519
65.28	9.83858
65.5	2.58362
65.72	9.57328
65.94	1.62726
66.16	4.45203
66.38	7.8802
66.6	9.97507
66.82	0.089821
67.04	2.7217
67.26	5.02482
67.48	11.6622
67.7	5.60324
67.92	9.5727
68.14	6.7071
68.36	5.86471
68.58	0.136999
68.8	3.61387
69.02	0.314819
69.24	7.72184
69.46	14.6575
69.68	4.48559
69.9	6.49919
70.12	4.45368
70.34	16.6393
70.56	11.8349
70.78	14.8349
71	0.368605
71.22	7.44984
71.44	11.6805
71.66	7.65466
71.88	7.51885
72.1	6.86783
72.32	16.0021
72.54	2.06491
72.76	8.88401
72.98	3.78439
73.2	10.8861
73.42	9.30038
73.64	7.14867
73.86	10.0059
74.08	9.88359
74.3	1.44596
74.52	0.196689
74.74	5.92838
74.96	7.21499
75.18	3.37352
75.4	12.4221
75.62	3.56709
75.84	1.83328
76.06	1.93159
76.28	5.00186
76.5	9.19877
76.72	1.38592
76.94	7.40817
77.16	10.3943
77.38	12.9475
77.6	5.80175
77.82	7.74508
78.04	10.2921
78.26	10.1364
78.48	4.02362
78.7	4.16468
78.92	15.002
79.14	4.79021
79.36	12.0273
79.58	6.25723
79.8	4.81384
80.02	1.77092
80.24	1.86977
80.46	8.0795
80.68	10.1668
80.9	10.2481
81.12	8.37263
81.34	13.7235
81.56	10.7464
81.78	4.53845
82	1.99788
82.22	6.81541
82.44	2.67334
82.66	9.51112
82.88	12.4277
83.1	8.33383
83.32	9.21271
83.54	10.9127
83.76	0.328201
83.98	13.5494
84.2	0.506244
84.42	3.545
84.64	2.62182
84.86	1.78829
85.08	8.14048
85.3	13.4902
85.52	6.66099
85.74	3.524
85.96	0.402867
86.18	6.0351
86.4	5.14811
86.62	6.31375
86.84	4.3824
87.06	2.34579
87.28	1.87767
87.5	6.79221
87.72	1.45125
87.94	11.4971
88.16	7.56722
88.38	1.41792
88.6	16.6044
88.82	4.57074
89.04	9.78547
89.26	2.29953
89.48	2.31
89.7	9.57264
89.92	3.81872
