Measurement: Powder, Xray Data XY Processed
Mineral: Fayalite
Rruff sample: R070374
Ideal chemistry: Fe^2+^_2_SiO_4_
Locality: Little Lake, Lake County, California, USA
Source: Michael Scott
Description: Large dark brown crystal fragment
Diffraction sample description: Powder
Measured chemistry: (Fe^2+^_1.89_Mn^2+^_0.11_)_Î£=2_Si_1.00_O_4_ ; trace amounts of Mg
Cell parameters: a: 4.8233(3) b: 10.4959(2) c: 6.0966(3) alpha: 90 beta: 90 gamma: 90 volume: 308.64(2) crystal system: orthorhombic
x	intensity
5	0
5.22	16.0957
5.44	55.2219
5.66	31.6375
5.88	32.9163
6.1	24.4565
6.32	0.110626
6.54	22.5313
6.76	7.99609
6.98	5.53633
7.2	6.68131
7.42	45.1039
7.64	36.9113
7.86	44.7432
8.08	35.5114
8.3	14.393
8.52	36.8561
8.74	12.746
8.96	12.9807
9.18	1.15492
9.4	16.6401
9.62	7.42383
9.84	28.5504
10.06	22.0237
10.28	29.1562
10.5	5.18944
10.72	20.7576
10.94	33.7245
11.16	33.5882
11.38	37.6888
11.6	11.0465
11.82	24.175
12.04	9.56424
12.26	31.349
12.48	17.1909
12.7	19.308
12.92	25.2575
13.14	6.39224
13.36	36.3132
13.58	22.4066
13.8	5.54446
14.02	27.0004
14.24	34.0833
14.46	13.7146
14.68	11.5647
14.9	27.05
15.12	13.7611
15.34	21.0603
15.56	3.15956
15.78	34.5416
16	9.19818
16.22	42.5178
16.44	3.17624
16.66	24.2451
16.88	41.7431
17.1	22.7543
17.32	0.651657
17.54	12.2961
17.76	26.2751
17.98	3.81982
18.2	13.632
18.42	34.0645
18.64	10.3729
18.86	43.4382
19.08	26.4631
19.3	38.3671
19.52	39.7225
19.74	22.1366
19.96	38.808
20.18	21.7452
20.4	20.9475
20.62	22.3119
20.84	10.5864
21.06	16.4204
21.28	22.8345
21.5	5.67152
21.72	30.9703
21.94	20.7014
22.16	33.5879
22.38	69.7723
22.6	28.4248
22.82	31.6016
23.04	36.3188
23.26	22.7073
23.48	12.0639
23.7	53.8635
23.92	25.6828
24.14	13.0116
24.36	3.22012
24.58	12.4935
24.8	24.6559
25.02	79.198
25.24	15.8519
25.46	4.29633
25.68	40.4972
25.9	30.5986
26.12	21.2238
26.34	22.9125
26.56	12.1595
26.78	40.0845
27	41.9419
27.22	9.51555
27.44	67.1248
27.66	6.45079
27.88	6.05162
28.1	30.1908
28.32	35.138
28.54	35.4852
28.76	46.7449
28.98	39.9975
29.2	21.7227
29.42	1.03972
29.64	42.6608
29.86	41.2024
30.08	9.72174
30.3	32.4205
30.52	31.7841
30.74	24.3047
30.96	38.7152
31.18	13.7946
31.4	58.0491
31.62	327.701
31.84	4.28015
32.06	20.6683
32.28	44.8337
32.5	37.3223
32.72	34.7426
32.94	51.0714
33.16	37.2822
33.38	37.7245
33.6	35.1538
33.82	38.3779
34.04	92.6873
34.26	47.002
34.48	21.746
34.7	20.1856
34.92	58.8911
35.14	7.21768
35.36	7.0735
35.58	10.8766
35.8	50.077
36.02	134.399
36.24	38.6442
36.46	15.2572
36.68	16.4645
36.9	42.4963
37.12	18.2911
37.34	108.302
37.56	32.1221
37.78	19.1026
38	19.2555
38.22	3.63681
38.44	11.8376
38.66	0.819931
38.88	2.27097
39.1	108.853
39.32	27.7037
39.54	12.2347
39.76	19.5383
39.98	10.5123
40.2	5.68448
40.42	19.0023
40.64	33.2438
40.86	29.5274
41.08	38.8097
41.3	20.7138
41.52	7.76479
41.74	17.0188
41.96	59.3995
42.18	23.0398
42.4	4.6481
42.62	30.4712
42.84	9.38237
43.06	6.13831
43.28	20.5857
43.5	41.67
43.72	35.2209
43.94	19.0445
44.16	59.8424
44.38	6.02394
44.6	15.9903
44.82	83.9306
45.04	14.7584
45.26	12.6143
45.48	10.7115
45.7	28.058
45.92	0.749084
46.14	4.47061
46.36	51.5361
46.58	19.6759
46.8	18.7494
47.02	6.35474
47.24	58.2796
47.46	32.6793
47.68	34.675
47.9	1.7531
48.12	22.5612
48.34	26.8418
48.56	68.0089
48.78	6.91594
49	61.6003
49.22	40.8443
49.44	40.4556
49.66	19.1104
49.88	66.8231
50.1	13.1289
50.32	4.65634
50.54	9.85039
50.76	5.57506
50.98	26.5379
51.2	4.91303
51.42	86.7166
51.64	18.7765
51.86	32.0547
52.08	45.8769
52.3	34.6729
52.52	32.3698
52.74	15.3947
52.96	40.548
53.18	31.7856
53.4	7.99408
53.62	36.3573
53.84	38.5052
54.06	16.717
54.28	2.64735
54.5	24.6959
54.72	42.2622
54.94	22.8408
55.16	31.0243
55.38	18.6857
55.6	20.0311
55.82	25.494
56.04	23.0588
56.26	17.9236
56.48	43.6094
56.7	66.5408
56.92	8.52963
57.14	22.4872
57.36	40.5551
57.58	44.3179
57.8	11.6612
58.02	36.9047
58.24	37.9054
58.46	12.9893
58.68	5.49583
58.9	13.4659
59.12	17.8332
59.34	18.4452
59.56	36.2646
59.78	33.399
60	32.5788
60.22	40.6601
60.44	35.3423
60.66	7.48795
60.88	11.6663
61.1	28.7015
61.32	6.59946
61.54	14.8101
61.76	13.3713
61.98	14.4228
62.2	48.2183
62.42	19.2259
62.64	39.0083
62.86	45.2396
63.08	16.0501
63.3	50.5582
63.52	17.4988
63.74	18.6364
63.96	49.0287
64.18	49.5386
64.4	24.4472
64.62	17.8144
64.84	12.8753
65.06	43.3681
65.28	44.1635
65.5	55.4276
65.72	37.5543
65.94	10.3982
66.16	21.5927
66.38	2.99702
66.6	22.6421
66.82	7.81973
67.04	34.0977
67.26	19.6756
67.48	15.1634
67.7	22.79
67.92	37.7078
68.14	69.5758
68.36	48.8936
68.58	17.0394
68.8	20.2795
69.02	38.7082
69.24	9.28744
69.46	21.922
69.68	14.4097
69.9	61.8596
70.12	48.7027
70.34	39.19
70.56	32.4038
70.78	8.83469
71	10.5234
71.22	51.1441
71.44	0.66922
71.66	37.8701
71.88	9.32677
72.1	19.3888
72.32	35.3932
72.54	16.4342
72.76	15.9119
72.98	20.894
73.2	39.0286
73.42	22.5739
73.64	57.6693
73.86	26.527
74.08	8.29524
74.3	39.9769
74.52	28.7185
74.74	47.7902
74.96	33.3105
75.18	18.3836
75.4	24.1921
75.62	3.00673
75.84	43.1762
76.06	38.363
76.28	9.38237
76.5	24.8331
76.72	23.7362
76.94	35.3862
77.16	24.4317
77.38	39.1025
77.6	30.1061
77.82	3.77151
78.04	10.9397
78.26	28.8765
78.48	45.4151
78.7	29.257
78.92	48.6975
79.14	1.29672
79.36	27.4374
79.58	45.4772
79.8	0.18927
80.02	16.5723
80.24	9.54144
80.46	18.84
80.68	0.695526
80.9	45.4897
81.12	15.1812
81.34	29.4254
81.56	32.8772
81.78	6.65108
82	44.3676
82.22	41.1271
82.44	21.9457
82.66	14.3347
82.88	8.30508
83.1	3.38461
83.32	59.4383
83.54	10.4287
83.76	21.3841
83.98	26.8962
84.2	21.5645
84.42	39.5412
84.64	34.5378
84.86	31.7481
85.08	21.4454
85.3	24.6574
85.52	26.4599
85.74	20.446
85.96	33.6482
86.18	29.8676
86.4	36.0366
86.62	36.7149
86.84	25.7389
87.06	36.9434
87.28	9.28094
87.5	19.4726
87.72	24.3368
87.94	18.7704
88.16	20.094
88.38	31.4162
88.6	41.6426
88.82	25.196
89.04	8.53218
89.26	20.1666
89.48	38.2296
89.7	21.6474
89.92	16.4083
