Measurement: Powder, Xray Data XY Processed
Mineral: Fayalite
Rruff sample: R070293
Ideal chemistry: Fe^2+^_2_SiO_4_
Locality: Pike's Peak, Teller County, Colorado, USA
Source: Michael Scott
Description: Black single crystal fragment with internal hints of red and green
Diffraction sample description: Powder
Measured chemistry: (Fe^2+^_1.87_Mn^2+^_0.13_)_Î£=2_Si_1.00_O_4_ ; trace amounts of Mg
Cell parameters: a: 4.8245(6) b: 10.4959(4) c: 6.0974(4) alpha: 90 beta: 90 gamma: 90 volume: 308.75(3) crystal system: orthorhombic
x	intensity
5	0
5.22	21.5394
5.44	25.9517
5.66	30.0513
5.88	36.7355
6.1	17.7293
6.32	36.7791
6.54	29.6716
6.76	38.0675
6.98	19.0835
7.2	9.72702
7.42	26.0437
7.64	1.49597
7.86	43.9302
8.08	23.4926
8.3	37.852
8.52	48.0984
8.74	12.6155
8.96	6.1194
9.18	29.4709
9.4	9.7814
9.62	5.44345
9.84	10.5426
10.06	22.2302
10.28	19.9235
10.5	30.8239
10.72	41.4501
10.94	23.1923
11.16	42.3521
11.38	24.1553
11.6	10.7475
11.82	21.315
12.04	21.7026
12.26	37.1207
12.48	11.8453
12.7	9.64171
12.92	13.4268
13.14	31.6936
13.36	26.5698
13.58	30.9642
13.8	18.9429
14.02	10.0482
14.24	5.52202
14.46	17.2474
14.68	45.1767
14.9	12.4772
15.12	43.5391
15.34	14.3585
15.56	4.51344
15.78	33.8496
16	8.084
16.22	28.6204
16.44	27.0484
16.66	38.1591
16.88	38.5074
17.1	14.9138
17.32	17.8942
17.54	43.6203
17.76	33.8392
17.98	11.2477
18.2	17.0455
18.42	11.0485
18.64	10.2157
18.86	0.033829
19.08	56.8572
19.3	28.5816
19.52	30.0149
19.74	13.5874
19.96	16.6937
20.18	35.7097
20.4	22.3348
20.62	23.5743
20.84	28.976
21.06	13.4717
21.28	36.1601
21.5	29.5689
21.72	37.7542
21.94	11.6212
22.16	38.4015
22.38	78.6187
22.6	37.2266
22.82	28.8709
23.04	20.7573
23.26	1.80121
23.48	41.8723
23.7	34.842
23.92	52.3029
24.14	27.5039
24.36	36.2415
24.58	7.19698
24.8	27.2724
25.02	108.394
25.24	39.0721
25.46	25.7854
25.68	22.7704
25.9	22.0413
26.12	2.51708
26.34	2.29237
26.56	33.0598
26.78	30.2562
27	27.2684
27.22	19.8104
27.44	23.5895
27.66	36.6916
27.88	12.6694
28.1	33.5541
28.32	3.04761
28.54	20.5207
28.76	41.7856
28.98	53.6638
29.2	36.7517
29.42	41.6584
29.64	15.0765
29.86	7.10075
30.08	16.7653
30.3	17.4791
30.52	57.8734
30.74	56.2034
30.96	44.9098
31.18	28.3699
31.4	20.4901
31.62	310.438
31.84	35.2931
32.06	31.6349
32.28	11.013
32.5	31.1851
32.72	4.44211
32.94	23.0984
33.16	15.7718
33.38	11.3938
33.6	20.2321
33.82	11.5363
34.04	101.974
34.26	73.6794
34.48	48.0984
34.7	0.557587
34.92	175.393
35.14	35.5748
35.36	11.2417
35.58	2.02887
35.8	34.4293
36.02	71.7029
36.24	18.0098
36.46	21.897
36.68	17.1625
36.9	0.962692
37.12	13.1871
37.34	93.4667
37.56	24.7357
37.78	22.4647
38	40.1867
38.22	19.8979
38.44	38.6377
38.66	6.52945
38.88	46.1365
39.1	64.7079
39.32	11.3337
39.54	39.6566
39.76	31.3459
39.98	23.1849
40.2	56.184
40.42	8.23425
40.64	6.54707
40.86	39.8785
41.08	39.8317
41.3	36.9915
41.52	52.5684
41.74	18.246
41.96	19.306
42.18	20.2133
42.4	43.3045
42.62	23.0373
42.84	17.7059
43.06	2.6096
43.28	62.5647
43.5	32.8416
43.72	43.0911
43.94	38.2387
44.16	18.2595
44.38	14.3194
44.6	37.5027
44.82	14.8832
45.04	35.8547
45.26	46.4212
45.48	26.5012
45.7	19.952
45.92	4.82163
46.14	26.1809
46.36	7.03154
46.58	25.7429
46.8	6.92983
47.02	21.2126
47.24	31.5035
47.46	37.0302
47.68	9.28191
47.9	44.2381
48.12	25.0155
48.34	14.0439
48.56	10.7432
48.78	55.0814
49	62.0245
49.22	30.2602
49.44	63.9235
49.66	34.6525
49.88	18.6697
50.1	14.0654
50.32	42.7611
50.54	18.973
50.76	13.8734
50.98	2.25455
51.2	37.0185
51.42	95.0021
51.64	28.814
51.86	10.2294
52.08	23.3864
52.3	62.0336
52.52	25.9992
52.74	50.805
52.96	31.709
53.18	6.71934
53.4	29.7443
53.62	37.2846
53.84	49.6668
54.06	47.8134
54.28	32.5066
54.5	61.6921
54.72	50.6078
54.94	1.34569
55.16	30.0848
55.38	1.14917
55.6	44.5001
55.82	15.4547
56.04	32.5727
56.26	18.3963
56.48	52.3194
56.7	24.835
56.92	39.0379
57.14	12.6775
57.36	17.9681
57.58	24.1227
57.8	1.07814
58.02	21.7449
58.24	14.5301
58.46	40.17
58.68	35.7717
58.9	30.3316
59.12	21.0284
59.34	6.43611
59.56	17.6269
59.78	38.6895
60	19.3562
60.22	16.8409
60.44	46.975
60.66	24.8126
60.88	25.8254
61.1	50.5287
61.32	3.02153
61.54	9.31633
61.76	36.8197
61.98	17.3516
62.2	63.7953
62.42	4.12584
62.64	4.55206
62.86	27.1547
63.08	41.0289
63.3	17.1927
63.52	1.18538
63.74	44.776
63.96	7.96915
64.18	50.4841
64.4	13.6341
64.62	37.2638
64.84	15.144
65.06	51.6461
65.28	38.773
65.5	12.7383
65.72	41.6389
65.94	9.50145
66.16	9.39545
66.38	55.4352
66.6	16.2257
66.82	17.1605
67.04	31.5047
67.26	23.0812
67.48	22.9919
67.7	26.4798
67.92	18.5663
68.14	5.3884
68.36	31.9095
68.58	6.90735
68.8	8.80321
69.02	37.1234
69.24	12.0216
69.46	45.5875
69.68	21.7126
69.9	28.2068
70.12	7.60381
70.34	49.8856
70.56	29.429
70.78	12.5984
71	20.6067
71.22	31.5215
71.44	31.2408
71.66	28.0697
71.88	5.1087
72.1	23.424
72.32	13.8678
72.54	46.8638
72.76	44.646
72.98	35.6125
73.2	11.9081
73.42	35.6108
73.64	35.1541
73.86	7.41653
74.08	54.5242
74.3	45.746
74.52	10.3605
74.74	2.39002
74.96	9.02402
75.18	35.669
75.4	8.94334
75.62	5.96729
75.84	7.15907
76.06	30.5043
76.28	16.6731
76.5	27.5426
76.72	39.7198
76.94	60.0359
77.16	2.87953
77.38	35.37
77.6	10.3794
77.82	18.9899
78.04	48.2684
78.26	28.3894
78.48	17.6802
78.7	11.678
78.92	19.3581
79.14	16.8957
79.36	27.1165
79.58	44.9487
79.8	24.3642
80.02	29.3431
80.24	24.2809
80.46	17.0846
80.68	44.7944
80.9	17.7037
81.12	0.994705
81.34	13.0452
81.56	14.5181
81.78	34.2419
82	29.9669
82.22	32.4916
82.44	21.2441
82.66	18.5798
82.88	9.21477
83.1	11.0536
83.32	10.4824
83.54	60.744
83.76	19.4802
83.98	15.3394
84.2	22.5494
84.42	5.33418
84.64	27.5391
84.86	13.925
85.08	9.48082
85.3	3.35388
85.52	31.5431
85.74	15.0545
85.96	27.9027
86.18	2.52745
86.4	12.7119
86.62	28.7107
86.84	31.5735
87.06	13.0806
87.28	33.7368
87.5	30.7587
87.72	5.09119
87.94	63.5523
88.16	44.9725
88.38	27.8712
88.6	4.33125
88.82	24.4537
89.04	38.3443
89.26	19.3373
89.48	10.3772
89.7	18.9661
89.92	40.0122
