Measurement: Powder, Xray Data XY Processed
Mineral: Felsobanyaite
Rruff sample: R060239
Ideal chemistry: Al_4_(S^6+^O_4_)(OH)_10_4H_2_O
Locality: El Dragon mine, Potosi, Bolivia
Source: Michael Scott
Description: White, massive powder associated with light blue chalcomenite.
Diffraction sample description: Powder, using Mo radiation
Cell parameters: a: 13.050(5) b: 10.124(5) c: 11.103(7) alpha: 90 beta: 103.90(4) gamma: 90 volume: 1424.0(7) crystal system: monoclinic
x	intensity
3.93	0
4.05	0.634306
4.17	172.513
4.29	638.659
4.41	866.796
4.53	873.486
4.65	554.788
4.77	223.272
4.89	77.3564
5.01	17.369
5.13	52.7049
5.25	147.567
5.37	225.098
5.49	322.334
5.61	354.906
5.73	323.062
5.85	281.2
5.97	305.962
6.09	274.173
6.21	109.875
6.33	9.208
6.45	5.55776
6.57	5.42567
6.69	17.7115
6.81	269.648
6.93	349.306
7.05	253.398
7.17	20.5772
7.29	5.50462
7.41	5.00903
7.53	211.055
7.65	361.603
7.77	371.119
7.89	197.78
8.01	76.9527
8.13	39.5513
8.25	76.3933
8.37	171.994
8.49	528.032
8.61	1085.48
8.73	1361.18
8.85	1312.82
8.97	968.702
9.09	730.615
9.21	534.198
9.33	330.825
9.45	174.351
9.57	85.4829
9.69	32.6276
9.81	1.98494
9.93	12.7384
10.05	3.86713
10.17	2.38498
10.29	101.371
10.41	217.441
10.53	243.821
10.65	171.899
10.77	94.7712
10.89	207.238
11.01	412.783
11.13	566.486
11.25	561.078
11.37	337.233
11.49	152.676
11.61	107.298
11.73	226.695
11.85	368.382
11.97	354.149
12.09	138.212
12.21	0.590149
12.33	6.59915
12.45	9.47248
12.57	24.5701
12.69	113.24
12.81	95.5202
12.93	94.4743
13.05	100.159
13.17	46.5184
13.29	29.3042
13.41	18.0791
13.53	56.8157
13.65	102.465
13.77	188.465
13.89	244.442
14.01	178.315
14.13	67.0372
14.25	56.0661
14.37	146.162
14.49	138.979
14.61	59.586
14.73	13.1429
14.85	124.29
14.97	321.37
15.09	339.214
15.21	254.282
15.33	223.221
15.45	177.005
15.57	66.7241
15.69	12.6559
15.81	2.50192
15.93	4.65161
16.05	3.80458
16.17	2.68542
16.29	8.78663
16.41	108.526
16.53	262.841
16.65	331.889
16.77	249.621
16.89	128.891
17.01	39.3406
17.13	1.25615
17.25	2.00819
17.37	2.05955
17.49	41.7741
17.61	181.951
17.73	392.249
17.85	597.818
17.97	647.538
18.09	485.069
18.21	269.594
18.33	185.559
18.45	266.449
18.57	420.086
18.69	413.605
18.81	221.936
18.93	61.9729
19.05	25.5165
19.17	35.0431
19.29	57.9033
19.41	74.5214
19.53	78.91
19.65	105.564
19.77	130.064
19.89	152.006
20.01	174.452
20.13	148.897
20.25	43.1784
20.37	3.9405
20.49	2.79403
20.61	3.66426
20.73	72.1029
20.85	94.5953
20.97	34.2371
21.09	0.296504
21.21	2.92095
21.33	9.33674
21.45	116.667
21.57	391.747
21.69	586.883
21.81	453.363
21.93	224.826
22.05	156.727
22.17	196.911
22.29	187.741
22.41	92.7636
22.53	48.0669
22.65	44.491
22.77	60.019
22.89	117.184
23.01	239.183
23.13	287.268
23.25	215.519
23.37	90.5672
23.49	17.3379
23.61	7.26496
23.73	21.6069
23.85	9.98643
23.97	1.13642
24.09	2.98373
24.21	3.409
24.33	0.501903
24.45	7.60846
24.57	0.131647
24.69	0.983042
24.81	1.28813
24.93	34.8439
25.05	100.443
25.17	205.691
25.29	325.589
25.41	306.138
25.53	221.28
25.65	158.617
25.77	101.609
25.89	77.3272
26.01	96.0745
26.13	87.0262
26.25	91.3789
26.37	58.8929
26.49	47.4176
26.61	28.3067
26.73	7.13471
26.85	2.07658
26.97	7.93841
27.09	1.5774
27.21	2.26652
27.33	0.269462
27.45	6.19687
27.57	64.9955
27.69	102.659
27.81	150.187
27.93	216.381
28.05	266.168
28.17	339.409
28.29	365.107
28.41	410.99
28.53	503.892
28.65	487.583
28.77	412.215
28.89	326.793
29.01	254.214
29.13	177.315
29.25	145.326
29.37	130.219
29.49	191.298
29.61	178.987
29.73	135.882
29.85	59.3733
29.97	8.17053
30.09	0.567775
30.21	0.3631
30.33	0.841631
30.45	7.70885
30.57	7.41718
30.69	28.4693
30.81	51.955
30.93	67.8089
31.05	52.0397
31.17	25.4662
31.29	11.1817
31.41	30.8013
31.53	42.2553
31.65	40.6568
31.77	19.2021
31.89	5.53506
32.01	0.125464
32.13	0.414848
32.25	21.7794
32.37	29.0753
32.49	23.632
32.61	18.9611
32.73	1.75317
32.85	0.954433
32.97	0.513511
33.09	12.3842
33.21	22.6626
33.33	39.2135
33.45	36.9518
33.57	20.8946
33.69	43.5617
33.81	35.6564
33.93	20.3095
34.05	0.697952
34.17	9.45817
34.29	2.09701
34.41	1.54877
34.53	14.543
34.65	17.6851
34.77	72.9601
34.89	87.2589
35.01	90.9976
35.13	48.4849
35.25	28.6606
35.37	36.9925
35.49	31.0367
35.61	21.0085
35.73	20.5306
35.85	28.1378
35.97	17.7456
36.09	39.0125
36.21	14.6977
36.33	17.329
36.45	16.9016
36.57	7.43506
36.69	0.679207
36.81	13.0286
36.93	11.8196
37.05	1.94965
37.17	0.71347
37.29	3.187
37.41	1.49284
37.53	9.20116
37.65	7.61537
37.77	8.98539
37.89	10.2606
38.01	0.594733
38.13	7.64449
38.25	33.2183
38.37	42.6003
38.49	46.4361
38.61	53.8312
38.73	45.4372
38.85	42.0014
38.97	33.7232
39.09	13.8442
39.21	24.0264
39.33	10.8955
39.45	7.19581
39.57	3.93591
39.69	12.5808
39.81	9.74958
39.93	11.0783
40.05	19.0531
40.17	13.5669
40.29	0.769554
40.41	2.99022
40.53	1.11268
40.65	11.4316
40.77	12.8216
40.89	0.527301
41.01	1.00973
41.13	1.22251
41.25	0.99361
41.37	0.55087
41.49	0.645923
41.61	3.31598
41.73	5.09447
41.85	4.66495
41.97	6.08646
42.09	25.4034
42.21	12.1259
42.33	4.30836
42.45	9.71204
42.57	11.5394
42.69	7.07398
42.81	7.52068
42.93	4.40446
43.05	5.08834
43.17	1.66113
43.29	0.719636
43.41	17.9888
43.53	12.1182
43.65	14.8324
43.77	19.5998
43.89	22.7943
44.01	18.1661
44.13	27.3469
44.25	25.4772
44.37	0.585042
44.49	12.3227
44.61	13.7787
44.73	11.7061
44.85	27.1777
44.97	22.4221
45.09	17.4302
45.21	8.12497
45.33	10.1451
45.45	18.7074
45.57	11.2316
45.69	13.7215
45.81	19.8247
45.93	23.5568
46.05	19.205
46.17	1.57496
46.29	12.4886
46.41	22.5331
46.53	5.25191
46.65	2.04067
46.77	15.5744
46.89	16.4287
47.01	1.48187
47.13	2.32099
47.25	5.97484
47.37	3.472
47.49	12.5487
47.61	0.517955
47.73	6.29363
47.85	1.13431
47.97	5.96185
48.09	0.130216
48.21	40.818
48.33	1.64254
48.45	59.2499
48.57	65.5815
