Measurement: Powder, Xray Data XY Processed
Mineral: Ferberite
Rruff sample: R040044
Ideal chemistry: Fe^2+^W^6+^O_4_
Locality: Chocote, Bolivia
Source: University of Arizona Mineral Museum
Description: Black tabular single crystal
Diffraction sample description: Powder
Measured chemistry: (Fe_0.82_Mn_0.08_Mg_0.07_Pb_0.03_)_Î£=1_W_1.00_O_4_
Cell parameters: a: 4.7382(3) b: 5.7105(3) c: 4.9656(5) alpha: 90 beta: 90.016(9) gamma: 90 volume: 134.36(1) crystal system: monoclinic
x	intensity
5	0
5.22	12.057
5.44	7.419
5.66	3.071
5.88	13.371
6.1	13.899
6.32	11.657
6.54	13.529
6.76	4.303
6.98	16.891
7.2	20.218
7.42	12.933
7.64	16.803
7.86	12.35
8.08	12.479
8.3	7.5
8.52	9.843
8.74	4.96
8.96	6.192
9.18	6.02
9.4	8.539
9.62	16.675
9.84	7.369
10.06	1.05
10.28	14.129
10.5	14.006
10.72	11.794
10.94	8.541
11.16	8.413
11.38	4.077
11.6	6.199
11.82	14.822
12.04	1.162
12.26	3.704
12.48	1.219
12.7	13.703
12.92	7.806
13.14	14.904
13.36	0.032
13.58	20.356
13.8	15.548
14.02	15.222
14.24	5.206
14.46	10.852
14.68	11.327
14.9	1.849
15.12	7.685
15.34	1.407
15.56	284.247
15.78	1.429
16	17.988
16.22	10.422
16.44	9.319
16.66	1.34
16.88	17.279
17.1	7.815
17.32	2.406
17.54	2.314
17.76	11.144
17.98	6.847
18.2	6.194
18.42	2.765
18.64	27.392
18.86	148.4
19.08	5.973
19.3	13.435
19.52	12.786
19.74	10.916
19.96	1.767
20.18	4.443
20.4	3.678
20.62	5.096
20.84	20.038
21.06	1.303
21.28	11.897
21.5	1.813
21.72	13.958
21.94	12.18
22.16	23.652
22.38	6.376
22.6	15.929
22.82	2.24
23.04	20.363
23.26	2.824
23.48	14.092
23.7	36.007
23.92	68.714
24.14	24.311
24.36	48.005
24.58	71.725
24.8	1.64
25.02	15.94
25.24	8.377
25.46	12.598
25.68	10.105
25.9	17.744
26.12	7.501
26.34	3.951
26.56	8.958
26.78	14.477
27	0.242
27.22	0.569
27.44	15.347
27.66	14.397
27.88	17.567
28.1	6.638
28.32	10.457
28.54	5.448
28.76	4.05
28.98	13.253
29.2	17.128
29.42	4.937
29.64	1.853
29.86	10.803
30.08	23.504
30.3	80.307
30.52	918.866
30.74	44.291
30.96	14.444
31.18	30.224
31.4	289.803
31.62	23.701
31.84	1.186
32.06	5.291
32.28	5.258
32.5	7.305
32.72	19.647
32.94	8.398
33.16	7.04
33.38	19.15
33.6	12.69
33.82	17.639
34.04	9.317
34.26	21.484
34.48	14.179
34.7	18.026
34.92	3.433
35.14	6.493
35.36	2.862
35.58	0.725
35.8	7.457
36.02	18.155
36.24	96.452
36.46	99.779
36.68	20.139
36.9	52.937
37.12	20.865
37.34	0.543
37.56	3.38
37.78	11.032
38	107.063
38.22	33.567
38.44	3.881
38.66	13.83
38.88	1.418
39.1	4.884
39.32	33.038
39.54	8.93
39.76	1.135
39.98	3.416
40.2	9.875
40.42	0.864
40.64	11.767
40.86	3.603
41.08	73.741
41.3	120.133
41.52	10.187
41.74	7.134
41.96	12.173
42.18	6.696
42.4	17.02
42.62	10.419
42.84	5.793
43.06	20.721
43.28	6.436
43.5	16.728
43.72	17.429
43.94	10.837
44.16	25.422
44.38	30.177
44.6	1.982
44.82	6.917
45.04	6.627
45.26	35.783
45.48	55.454
45.7	20.797
45.92	4.914
46.14	19.85
46.36	14.075
46.58	14.965
46.8	11.717
47.02	10.999
47.24	6.316
47.46	5.547
47.68	21.635
47.9	47.799
48.12	9.723
48.34	13.508
48.56	20.138
48.78	36.786
49	8.777
49.22	3.154
49.44	1.419
49.66	7.764
49.88	18.375
50.1	65.663
50.32	15.428
50.54	8.439
50.76	12.851
50.98	11.111
51.2	19.349
51.42	21.858
51.64	36.812
51.86	182.571
52.08	33.765
52.3	7.59
52.52	21.847
52.74	9.605
52.96	7.468
53.18	2.728
53.4	68.615
53.62	226.597
53.84	29.289
54.06	0.914
54.28	4.143
54.5	9.088
54.72	9.427
54.94	12.271
55.16	22.639
55.38	35.613
55.6	15.808
55.82	4.104
56.04	8.006
56.26	7.472
56.48	1.514
56.7	4.776
56.92	18.159
57.14	19.244
57.36	8.488
57.58	16.824
57.8	4.993
58.02	24.422
58.24	12.663
58.46	25.753
58.68	15.601
58.9	18.335
59.12	10.5
59.34	13.722
59.56	9.666
59.78	10.947
60	16.34
60.22	6.326
60.44	5.14
60.66	3.926
60.88	36.165
61.1	15.702
61.32	18.201
61.54	44.735
61.76	31.716
61.98	14.216
62.2	5.688
62.42	0.203
62.64	41.216
62.86	1.735
63.08	1.35
63.3	14.608
63.52	13.753
63.74	3.818
63.96	69.626
64.18	36.331
64.4	11.961
64.62	18.658
64.84	76.176
65.06	41.26
65.28	23.244
65.5	19.019
65.72	0.025
65.94	3.989
66.16	12.388
66.38	16.639
66.6	11.792
66.82	20.468
67.04	14.17
67.26	11.978
67.48	15.952
67.7	4.923
67.92	21.125
68.14	0.859
68.36	125.353
68.58	83.136
68.8	21.093
69.02	6.187
69.24	0.996
69.46	1.836
69.68	3.643
69.9	14.442
70.12	13.907
70.34	15.158
70.56	8.794
70.78	25.994
71	7.776
71.22	15.559
71.44	26.087
71.66	53.807
71.88	35.99
72.1	5.55
72.32	7.097
72.54	19.446
72.76	1.047
72.98	16.256
73.2	10.735
73.42	14.811
73.64	15.624
73.86	3.013
74.08	1.756
74.3	7.028
74.52	21.454
74.74	23.613
74.96	12.432
75.18	6.237
75.4	17.062
75.62	13.205
75.84	16.319
76.06	11.102
76.28	3.578
76.5	10.444
76.72	17.659
76.94	11.784
77.16	10.424
77.38	7.814
77.6	25.138
77.82	10.397
78.04	10.089
78.26	23.56
78.48	15.504
78.7	20.249
78.92	8.444
79.14	15.986
79.36	9.016
79.58	14.544
79.8	7.728
80.02	22.48
80.24	15.371
80.46	20.919
80.68	9.367
80.9	57.405
81.12	49.385
81.34	38.153
81.56	15.681
81.78	6.635
82	5.812
82.22	10.495
82.44	8.21
82.66	24.263
82.88	1.127
83.1	10.37
83.32	22.412
83.54	0.593
83.76	10.336
83.98	22.386
84.2	6.536
84.42	31.83
84.64	11.096
84.86	1.843
85.08	14.954
85.3	9.637
85.52	3.65
85.74	8.083
85.96	24.023
86.18	0.754
86.4	4.977
86.62	11.588
86.84	4.717
87.06	1.609
87.28	17.034
87.5	5.089
87.72	16.213
87.94	99.041
88.16	36.239
88.38	25.927
88.6	2.711
88.82	7.977
89.04	13.509
89.26	17.114
89.48	2.861
89.7	18.099
89.92	25.116
