Measurement: Powder, Xray Data XY Processed
Mineral: Ferroceladonite
Rruff sample: R070442
Ideal chemistry: KFe^2+^Fe^3+^Si_4_O_10_(OH)_2_
Locality: Gravel Quarry, Mikhailov, Ryazanskaya Oblast', North-Western Region, Russia
Source: Michael Scott
Description: Massive aggregate of micaceous green play crystals, bright green when thin
Diffraction sample description: Powder
x	intensity
5	0
5.22	7.33115
5.44	22.6123
5.66	2.67217
5.88	40.3034
6.1	45.1285
6.32	1.78453
6.54	22.9397
6.76	48.7259
6.98	36.9337
7.2	9.03101
7.42	1.92093
7.64	14.9863
7.86	11.4502
8.08	12.5355
8.3	16.0701
8.52	48.0704
8.74	260.779
8.96	122.149
9.18	10.2733
9.4	10.1896
9.62	0.336182
9.84	6.79251
10.06	24.3853
10.28	4.97293
10.5	16.7806
10.72	32.5107
10.94	10.3035
11.16	12.6239
11.38	16.0373
11.6	3.59938
11.82	24.7731
12.04	1.48171
12.26	8.6454
12.48	1.64369
12.7	36.1082
12.92	21.0511
13.14	14.9428
13.36	39.1026
13.58	15.7329
13.8	14.5521
14.02	21.2893
14.24	43.7836
14.46	18.7796
14.68	47.0329
14.9	24.8209
15.12	40.6195
15.34	6.41852
15.56	22.5084
15.78	23.2982
16	3.07524
16.22	22.6997
16.44	21.4994
16.66	30.2847
16.88	31.8433
17.1	14.3036
17.32	14.0237
17.54	34.3802
17.76	49.0935
17.98	30.5378
18.2	17.8973
18.42	6.77008
18.64	9.88974
18.86	8.74751
19.08	39.1791
19.3	14.2518
19.52	4.99178
19.74	29.5761
19.96	26.2441
20.18	19.3428
20.4	2.07315
20.62	29.078
20.84	18.8976
21.06	32.0694
21.28	13.4393
21.5	38.2388
21.72	3.97494
21.94	38.2519
22.16	41.8834
22.38	26.4749
22.6	13.7646
22.82	54.8453
23.04	33.1779
23.26	27.2338
23.48	12.3818
23.7	30.8172
23.92	20.4698
24.14	44.8795
24.36	19.0717
24.58	5.73749
24.8	6.77847
25.02	13.4619
25.24	40.7131
25.46	22.56
25.68	24.5948
25.9	18.0954
26.12	17.8791
26.34	40.5548
26.56	64.2427
26.78	583.552
27	19.8257
27.22	18.4826
27.44	24.4164
27.66	58.9114
27.88	15.0308
28.1	22.9633
28.32	4.54405
28.54	5.45331
28.76	26.3531
28.98	21.4001
29.2	16.288
29.42	36.6222
29.64	42.3763
29.86	20.9655
30.08	67.1577
30.3	18.9824
30.52	5.38068
30.74	11.6055
30.96	52.0295
31.18	20.8377
31.4	25.9607
31.62	7.76843
31.84	10.5791
32.06	48.4868
32.28	31.5233
32.5	20.481
32.72	1.10184
32.94	19.2539
33.16	31.9259
33.38	5.28015
33.6	36.5105
33.82	8.58652
34.04	9.05959
34.26	22.8232
34.48	7.3748
34.7	50.6287
34.92	24.8577
35.14	5.47084
35.36	37.632
35.58	52.9652
35.8	22.0623
36.02	62.6362
36.24	28.3182
36.46	15.4092
36.68	3.61757
36.9	20.8346
37.12	35.2015
37.34	52.5712
37.56	19.684
37.78	14.3445
38	15.205
38.22	1.81502
38.44	1.40776
38.66	15.6897
38.88	11.0319
39.1	20.5272
39.32	24.8245
39.54	38.3403
39.76	6.45819
39.98	7.16846
40.2	13.6201
40.42	35.2417
40.64	17.3137
40.86	13.7458
41.08	18.4232
41.3	36.0584
41.52	27.9829
41.74	8.57358
41.96	39.4661
42.18	10.3766
42.4	7.33191
42.62	22.237
42.84	3.90103
43.06	40.9601
43.28	25.1871
43.5	40.5557
43.72	21.7333
43.94	18.2078
44.16	11.1791
44.38	30.4708
44.6	4.88554
44.82	24.1898
45.04	23.0848
45.26	56.597
45.48	69.8393
45.7	10.5472
45.92	28.8473
46.14	22.6132
46.36	27.641
46.58	14.247
46.8	20.6969
47.02	26.0644
47.24	36.2553
47.46	21.8307
47.68	18.1008
47.9	43.2282
48.12	18.6615
48.34	34.2031
48.56	31.4412
48.78	15.9368
49	24.7938
49.22	5.25134
49.44	42.5042
49.66	34.5647
49.88	6.97835
50.1	34.5551
50.32	50.5245
50.54	30.8266
50.76	12.9599
50.98	0.033997
51.2	15.2889
51.42	25.2116
51.64	50.3126
51.86	15.6125
52.08	13.2501
52.3	7.65396
52.52	21.4389
52.74	7.237
52.96	16.4372
53.18	38.6846
53.4	14.8819
53.62	12.3404
53.84	24.0156
54.06	32.3203
54.28	13.2795
54.5	7.10989
54.72	17.7336
54.94	10.8621
55.16	52.3174
55.38	56.346
55.6	30.2898
55.82	26.9552
56.04	15.2959
56.26	18.7252
56.48	11.3489
56.7	17.0019
56.92	51.1182
57.14	26.1847
57.36	6.66296
57.58	19.0162
57.8	15.8992
58.02	31.5365
58.24	12.3764
58.46	30.525
58.68	24.6909
58.9	30.4028
59.12	27.6538
59.34	39.5434
59.56	17.5261
59.78	28.3491
60	7.08566
60.22	11.0453
60.44	25.04
60.66	31.8705
60.88	13.0753
61.1	20.6196
61.32	4.11098
61.54	17.7767
61.76	3.76268
61.98	5.03191
62.2	30.7511
62.42	40.251
62.64	22.842
62.86	23.4962
63.08	29.6149
63.3	26.1588
63.52	10.9015
63.74	23.9386
63.96	6.9595
64.18	32.1036
64.4	25.7106
64.62	38.5673
64.84	22.4258
65.06	41.2665
65.28	27.9226
65.5	37.2124
65.72	7.46278
65.94	14.6647
66.16	10.9454
66.38	17.1991
66.6	16.6274
66.82	2.58534
67.04	17.1607
67.26	9.25893
67.48	24.1059
67.7	33.1229
67.92	39.7632
68.14	11.9488
68.36	8.64952
68.58	4.83902
68.8	28.1621
69.02	24.9669
69.24	20.8932
69.46	16.4721
69.68	18.7525
69.9	13.0978
70.12	16.3462
70.34	32.1722
70.56	4.38784
70.78	3.21305
71	8.97002
71.22	25.2102
71.44	31.5204
71.66	35.2799
71.88	37.365
72.1	35.6775
72.32	32.9821
72.54	22.0374
72.76	29.3429
72.98	27.9754
73.2	12.4677
73.42	14.4361
73.64	17.5421
73.86	10.5689
74.08	29.0919
74.3	18.5687
74.52	3.42001
74.74	22.7507
74.96	8.77618
75.18	23.4095
75.4	21.0403
75.62	21.5949
75.84	18.7053
76.06	9.86016
76.28	40.1367
76.5	10.8695
76.72	17.0636
76.94	21.4636
77.16	19.3588
77.38	19.5913
77.6	6.0912
77.82	20.7324
78.04	23.9876
78.26	25.8516
78.48	17.6333
78.7	17.1817
78.92	23.0089
79.14	26.0044
79.36	19.9634
79.58	18.9203
79.8	18.261
80.02	13.6081
80.24	10.9185
80.46	38.1769
80.68	29.3441
80.9	12.1359
81.12	18.3676
81.34	13.6409
81.56	6.69535
81.78	25.0307
82	15.4522
82.22	14.5072
82.44	19.105
82.66	15.6228
82.88	16.4995
83.1	17.63
83.32	22.5499
83.54	31.5341
83.76	22.3604
83.98	21.2464
84.2	29.0514
84.42	9.52071
84.64	20.2085
84.86	38.3994
85.08	9.1526
85.3	13.1037
85.52	18.206
85.74	11.3829
85.96	17.4187
86.18	33.7355
86.4	33.9712
86.62	6.61588
86.84	3.3774
87.06	19.0357
87.28	16.5645
87.5	12.5123
87.72	13.9657
87.94	8.12795
88.16	2.17666
88.38	54.4403
88.6	23.4866
88.82	16.0268
89.04	1.59228
89.26	32.3357
89.48	31.9776
89.7	19.4254
89.92	3.33063
