Measurement: Powder, Xray Data XY Processed
Mineral: Ferro-pargasite
Rruff sample: R090015
Ideal chemistry: NaCa_2_(Fe^2+^_4_Al)(Si_6_Al_2_)O_22_(OH)_2_
Locality: Basha Valley, Skardu District, Baltistan, Northern Areas, Pakistan
Source: Herb Obodda
Description: Black bladed single crystal with striations
Diffraction sample description: Powder
Cell parameters: a: 9.9145(6) b: 18.084(1) c: 5.3273(5) alpha: 90 beta: 105.152(7) gamma: 90 volume: 921.95(9) crystal system: monoclinic
x	intensity
5	0
5.22	12.869
5.44	25.888
5.66	7.7582
5.88	18.2818
6.1	33.5525
6.32	25.6652
6.54	28.5235
6.76	4.55452
6.98	4.28914
7.2	20.2717
7.42	15.603
7.64	17.4996
7.86	10.6306
8.08	27.3439
8.3	17.1811
8.52	9.15116
8.74	4.09088
8.96	6.34956
9.18	10.0815
9.4	20.5625
9.62	14.8372
9.84	16.9635
10.06	17.1097
10.28	46.8591
10.5	545.1
10.72	9.81584
10.94	5.59016
11.16	7.52691
11.38	4.90269
11.6	5.82547
11.82	5.32211
12.04	30.5015
12.26	9.36423
12.48	21.7665
12.7	3.26697
12.92	21.2416
13.14	5.59582
13.36	4.24565
13.58	27.0978
13.8	26.1603
14.02	10.5676
14.24	2.81002
14.46	3.95226
14.68	15.8238
14.9	20.6105
15.12	4.65806
15.34	10.46
15.56	9.85634
15.78	22.9044
16	14.39
16.22	16.4321
16.44	7.43758
16.66	6.85385
16.88	8.85455
17.1	3.20808
17.32	17.5964
17.54	13.9358
17.76	9.90888
17.98	3.12819
18.2	21.0143
18.42	6.18809
18.64	18.8406
18.86	15.0622
19.08	8.71625
19.3	30.0221
19.52	24.3766
19.74	24.7202
19.96	7.10526
20.18	6.98943
20.4	15.9148
20.62	23.0003
20.84	16.0164
21.06	17.5433
21.28	30.3284
21.5	18.4819
21.72	10.1831
21.94	16.6586
22.16	27.6428
22.38	26.7493
22.6	18.8583
22.82	32.9468
23.04	26.4566
23.26	9.04999
23.48	11.4781
23.7	12.7153
23.92	34.0566
24.14	8.26769
24.36	10.7487
24.58	15.9127
24.8	18.1276
25.02	25.1127
25.24	18.7191
25.46	10.6739
25.68	3.93613
25.9	14.4278
26.12	17.4694
26.34	92.3691
26.56	4.05117
26.78	18.3621
27	15.7979
27.22	100.582
27.44	23.7942
27.66	12.5632
27.88	13.5001
28.1	10.8826
28.32	56.5656
28.54	62.4693
28.76	3.01933
28.98	8.78023
29.2	24.3656
29.42	3.16789
29.64	7.45327
29.86	13.1828
30.08	3.33158
30.3	121.501
30.52	22.8683
30.74	6.23135
30.96	28.652
31.18	0.84436
31.4	18.1261
31.62	18.0785
31.84	35.0036
32.06	26.759
32.28	6.15825
32.5	105.517
32.72	13.7614
32.94	80.9202
33.16	34.4873
33.38	12.0912
33.6	0.069054
33.82	4.02689
34.04	5.1303
34.26	1.839
34.48	96.3747
34.7	16.3717
34.92	30.3921
35.14	69.3275
35.36	17.2897
35.58	10.4258
35.8	9.64835
36.02	17.241
36.24	14.3262
36.46	5.22587
36.68	8.65942
36.9	12.8824
37.12	19.3119
37.34	21.7239
37.56	61.0927
37.78	33.8887
38	17.4435
38.22	99.1692
38.44	55.7699
38.66	20.9338
38.88	22.7763
39.1	30.2362
39.32	34.4555
39.54	18.7537
39.76	2.16875
39.98	15.1685
40.2	11.1493
40.42	35.2066
40.64	22.2868
40.86	6.21937
41.08	7.07324
41.3	16.0174
41.52	18.4118
41.74	70.7155
41.96	17.4609
42.18	20.2465
42.4	27.7843
42.62	18.7464
42.84	2.13151
43.06	3.10952
43.28	5.80158
43.5	26.704
43.72	7.96059
43.94	23.4317
44.16	32.7504
44.38	22.5046
44.6	40.6884
44.82	61.2187
45.04	24.3309
45.26	13.5796
45.48	1.9998
45.7	6.83
45.92	19.4297
46.14	17.3661
46.36	24.7618
46.58	14.3727
46.8	2.17139
47.02	14.6587
47.24	9.84363
47.46	14.6006
47.68	18.5401
47.9	29.6003
48.12	30.9296
48.34	3.95174
48.56	9.01656
48.78	14.0769
49	15.9314
49.22	14.708
49.44	2.46545
49.66	23.1914
49.88	5.4548
50.1	7.40896
50.32	17.6781
50.54	20.0785
50.76	0.555389
50.98	24.3545
51.2	40.0141
51.42	16.1755
51.64	20.4731
51.86	4.60808
52.08	10.4684
52.3	8.3382
52.52	14.9807
52.74	6.65742
52.96	10.8758
53.18	17.7117
53.4	18.1903
53.62	6.07483
53.84	2.44437
54.06	28.0795
54.28	16.6554
54.5	24.7786
54.72	14.2831
54.94	14.4998
55.16	4.25907
55.38	16.183
55.6	11.0609
55.82	1.05624
56.04	28.4337
56.26	10.1078
56.48	3.56743
56.7	18.8257
56.92	21.1353
57.14	28.0413
57.36	10.9173
57.58	25.8104
57.8	41.8244
58.02	49.2353
58.24	2.75833
58.46	17.3236
58.68	10.4711
58.9	8.89008
59.12	15.6443
59.34	19.7228
59.56	31.9035
59.78	22.3024
60	15.1662
60.22	4.53932
60.44	20.0754
60.66	21.6153
60.88	34.7736
61.1	35.4147
61.32	19.169
61.54	35.4738
61.76	15.6117
61.98	7.70069
62.2	22.4226
62.42	9.34324
62.64	1.58735
62.86	1.65218
63.08	15.0378
63.3	11.1065
63.52	12.3306
63.74	17.6709
63.96	23.0694
64.18	22.0901
64.4	31.4386
64.62	20.8734
64.84	26.2431
65.06	0.954521
65.28	23.7267
65.5	11.961
65.72	10.219
65.94	15.5273
66.16	15.8529
66.38	5.093
66.6	7.67193
66.82	15.3253
67.04	5.6521
67.26	17.5753
67.48	0.697441
67.7	12.1201
67.92	42.354
68.14	26.3621
68.36	19.3525
68.58	27.9991
68.8	35.8821
69.02	20.4462
69.24	18.7806
69.46	2.03131
69.68	16.4916
69.9	13.9235
70.12	27.9227
70.34	22.0456
70.56	16.2487
70.78	18.8701
71	29.1254
71.22	16.5562
71.44	43.6761
71.66	20.4425
71.88	25.1665
72.1	16.6528
72.32	6.81014
72.54	13.3217
72.76	33.4294
72.98	13.5177
73.2	0.729973
73.42	13.3725
73.64	20.1798
73.86	18.3828
74.08	18.72
74.3	20.4317
74.52	21.5277
74.74	8.66157
74.96	30.5317
75.18	15.9025
75.4	14.6009
75.62	5.01617
75.84	22.5395
76.06	12.8292
76.28	27.3869
76.5	25.4157
76.72	12.5892
76.94	14.7508
77.16	2.45889
77.38	16.2831
77.6	17.6551
77.82	14.7534
78.04	17.4632
78.26	14.2133
78.48	14.9265
78.7	19.3771
78.92	12.6453
79.14	1.2199
79.36	9.31618
79.58	15.679
79.8	21.6445
80.02	16.0711
80.24	9.78931
80.46	21.8733
80.68	26.0305
80.9	17.0421
81.12	33.2372
81.34	20.8827
81.56	14.0679
81.78	20.2103
82	33.1414
82.22	24.9358
82.44	25.8393
82.66	7.01631
82.88	10.2923
83.1	9.78035
83.32	19.2557
83.54	2.16091
83.76	16.0105
83.98	8.06114
84.2	3.78525
84.42	12.3299
84.64	18.6064
84.86	18.4568
85.08	5.9998
85.3	20.7943
85.52	21.8665
85.74	19.6974
85.96	13.3023
86.18	19.2921
86.4	14.1067
86.62	19.822
86.84	18.7605
87.06	39.8101
87.28	22.4019
87.5	25.7081
87.72	24.5494
87.94	13.0192
88.16	10.173
88.38	16.348
88.6	1.87621
88.82	12.1284
89.04	16.7
89.26	16.7289
89.48	21.8718
89.7	34.908
89.92	1.90094
