Measurement: Powder, Xray Data XY Processed
Mineral: Ferrierite-Mg
Rruff sample: R070091
Ideal chemistry: [Mg_2_(K,Na)_2_Ca_0.5_](Si_29_Al_7_)O_72_18H_2_O
Locality: Kamloops Lake, British Columbia, Canada
Source: Michael Scott
Description: White acicular crystal in radial hemispheres and lining a cavity associated with quartz
Diffraction sample description: Powder
Measured chemistry: (Mg_1.66_Na_1.65_K_0.35_Ca_0.12_Ba_0.05_Sr_0.04_)_Σ=3.87_(Si_30.26_Al_5.74_)O_72_·21.5H_2_O; H_2_O estimated by difference
Cell parameters: a: 19.1523(4) b: 14.130(1) c: 7.4850(4) alpha: 90 beta: 90 gamma: 90 volume: 2025.5(2) crystal system: orthorhombic
x	intensity
5	0
5.22	18.7392
5.44	19.652
5.66	23.4743
5.88	22.9881
6.1	33.1429
6.32	34.6921
6.54	23.0542
6.76	5.02084
6.98	18.0215
7.2	10.921
7.42	11.6392
7.64	7.72389
7.86	2.90852
8.08	7.05851
8.3	100.733
8.52	8.12265
8.74	7.7045
8.96	149.156
9.18	3867.71
9.4	191.909
9.62	38.8593
9.84	42.2643
10.06	13.9411
10.28	7.18841
10.5	19.6312
10.72	5.72921
10.94	11.2607
11.16	3.07857
11.38	26.3335
11.6	6.25433
11.82	14.7139
12.04	7.08348
12.26	22.1469
12.48	38.5211
12.7	133.168
12.92	1.02767
13.14	25.435
13.36	46.7471
13.58	23.7075
13.8	5.48116
14.02	11.3442
14.24	11.2357
14.46	13.5524
14.68	15.1843
14.9	0.773247
15.12	48.7757
15.34	32.1029
15.56	26.7671
15.78	13.9935
16	10.3567
16.22	11.0959
16.44	1.40558
16.66	10.5105
16.88	17.5091
17.1	9.28816
17.32	3.02464
17.54	10.5098
17.76	6.2057
17.98	6.82322
18.2	12.805
18.42	2.83917
18.64	24.3593
18.86	21.0832
19.08	17.9199
19.3	17.2288
19.52	1.59946
19.74	19.5119
19.96	8.26479
20.18	4.35243
20.4	1.60004
20.62	9.80806
20.84	10.3703
21.06	8.94885
21.28	10.1677
21.5	13.398
21.72	20.838
21.94	9.76509
22.16	93.1707
22.38	231.366
22.6	20.5822
22.82	22.9208
23.04	41.6308
23.26	12.721
23.48	212.535
23.7	14.0586
23.92	24.4923
24.14	451.04
24.36	13.4334
24.58	21.2234
24.8	17.2494
25.02	110.342
25.24	122.449
25.46	32.301
25.68	16.0236
25.9	3.95717
26.12	178.428
26.34	16.8687
26.56	4.79941
26.78	13.3675
27	14.9755
27.22	4.75671
27.44	8.10442
27.66	2.10815
27.88	45.1846
28.1	29.4445
28.32	103.345
28.54	20.5031
28.76	15.3429
28.98	26.3062
29.2	34.6033
29.42	6.35442
29.64	10.1022
29.86	18.081
30.08	87.8585
30.3	29.5526
30.52	13.0257
30.74	15.2797
30.96	32.75
31.18	17.8508
31.4	2.64325
31.62	10.3453
31.84	0.056145
32.06	13.0887
32.28	20.1164
32.5	0.078407
32.72	15.5066
32.94	22.2913
33.16	10.2152
33.38	24.5479
33.6	1.97996
33.82	8.27436
34.04	21.0874
34.26	13.9452
34.48	3.1297
34.7	29.183
34.92	55.88
35.14	28.6397
35.36	2.82219
35.58	8.19577
35.8	9.37839
36.02	25.8264
36.24	6.5485
36.46	17.9113
36.68	7.39849
36.9	10.9542
37.12	16.9906
37.34	4.36795
37.56	18.5643
37.78	15.0454
38	114.494
38.22	0.352879
38.44	6.12915
38.66	9.79378
38.88	22.6722
39.1	10.3042
39.32	7.44241
39.54	12.2111
39.76	7.85163
39.98	17.158
40.2	13.1075
40.42	9.33311
40.64	3.14269
40.86	15.4398
41.08	0.35627
41.3	8.38751
41.52	9.82235
41.74	10.7741
41.96	4.85925
42.18	12.1179
42.4	8.32227
42.62	17.0934
42.84	18.1877
43.06	39.2708
43.28	17.3823
43.5	7.68094
43.72	13.9898
43.94	10.2254
44.16	16.3645
44.38	18.6749
44.6	10.8156
44.82	4.82543
45.04	14.3916
45.26	39.9241
45.48	22.7887
45.7	10.0655
45.92	2.35374
46.14	32.3918
46.36	8.14283
46.58	5.89053
46.8	59.8308
47.02	10.7172
47.24	20.3383
47.46	46.4306
47.68	5.96656
47.9	2.14277
48.12	3.57158
48.34	5.29139
48.56	11.1411
48.78	19.9924
49	9.24217
49.22	13.0382
49.44	5.70556
49.66	15.3237
49.88	10.4572
50.1	10.241
50.32	24.2533
50.54	5.55251
50.76	9.82557
50.98	0.761839
51.2	23.9543
51.42	17.997
51.64	19.1229
51.86	0.715015
52.08	6.42607
52.3	17.2764
52.52	4.6337
52.74	3.90276
52.96	24.1245
53.18	5.94243
53.4	12.5235
53.62	11.9622
53.84	5.5107
54.06	10.9928
54.28	1.12358
54.5	15.2738
54.72	8.40121
54.94	2.44089
55.16	7.97139
55.38	10.7604
55.6	10.6515
55.82	17.324
56.04	8.2998
56.26	16.1391
56.48	9.65101
56.7	29.6266
56.92	2.9204
57.14	5.51486
57.36	7.10974
57.58	18.092
57.8	55.614
58.02	2.13289
58.24	13.0709
58.46	7.17862
58.68	9.9789
58.9	1.47564
59.12	7.81698
59.34	15.7699
59.56	6.1616
59.78	9.36499
60	26.5519
60.22	10.4823
60.44	14.7579
60.66	12.1531
60.88	10.3567
61.1	4.57837
61.32	7.6694
61.54	11.8272
61.76	4.8259
61.98	23.8228
62.2	5.09269
62.42	11.039
62.64	11.174
62.86	7.0398
63.08	4.35635
63.3	4.56055
63.52	5.37592
63.74	7.15642
63.96	9.1911
64.18	11.213
64.4	18.1527
64.62	8.05999
64.84	19.4706
65.06	11.3276
65.28	20.291
65.5	17.2491
65.72	7.21808
65.94	4.23479
66.16	6.62884
66.38	1.02995
66.6	8.65914
66.82	15.282
67.04	4.82895
67.26	1.75286
67.48	4.94925
67.7	4.97635
67.92	10.8168
68.14	5.88696
68.36	13.0186
68.58	16.7615
68.8	19.5598
69.02	8.14616
69.24	0.846111
69.46	2.2956
69.68	8.61615
69.9	9.97665
70.12	7.31145
70.34	9.72785
70.56	0.901556
70.78	3.92402
71	4.42081
71.22	0.6688
71.44	4.15318
71.66	11.2698
71.88	6.70759
72.1	14.5997
72.32	10.5773
72.54	8.3322
72.76	14.1615
72.98	10.0553
73.2	0.976915
73.42	0.431398
73.64	17.573
73.86	13.3303
74.08	4.13839
74.3	8.768
74.52	5.627
74.74	5.54115
74.96	16.9299
75.18	6.77191
75.4	17.6454
75.62	14.5603
75.84	8.43209
76.06	6.36561
76.28	16.2091
76.5	11.4162
76.72	21.4793
76.94	10.7088
77.16	11.296
77.38	6.14557
77.6	6.20048
77.82	1.54396
78.04	7.04001
78.26	3.21283
78.48	2.35604
78.7	11.4491
78.92	5.42161
79.14	6.65226
79.36	1.56846
79.58	5.6378
79.8	14.9753
80.02	8.19955
80.24	12.0084
80.46	5.94382
80.68	8.99203
80.9	10.1734
81.12	8.36189
81.34	8.85758
81.56	12.1422
81.78	4.43656
82	8.92057
82.22	9.03733
82.44	5.03584
82.66	6.15505
82.88	12.277
83.1	12.4493
83.32	7.50674
83.54	6.44601
83.76	5.93685
83.98	6.62981
84.2	18.312
84.42	7.91275
84.64	15.8508
84.86	0.12124
85.08	16.55
85.3	7.26104
85.52	7.2108
85.74	1.05911
85.96	7.35048
86.18	0.42936
86.4	12.6771
86.62	27.164
86.84	17.117
87.06	9.02066
87.28	4.15714
87.5	4.79716
87.72	4.21034
87.94	9.4181
88.16	3.7832
88.38	2.8726
88.6	5.95645
88.82	8.19013
89.04	13.5413
89.26	2.84659
89.48	12.13
89.7	10.5165
89.92	13.777
