Measurement: Powder, Xray Data XY Processed
Mineral: Ferrimolybdite
Rruff sample: R050542
Ideal chemistry: Fe^3+^_2_(Mo^6+^O_4_)_3_7H_2_O
Locality: Alicante mine, Colorado, USA
Source: University of Arizona Mineral Museum
Description: Mat of parallel fibrous yellow-green crystals
Diffraction sample description: Powder, using Mo radiation
Measured chemistry: Fe^3+^_2.00_(Mo_1.00_O_4_)_3_Â·11H_2_O ; H2O estimated by difference
x	intensity
6.01	0
6.16	0.448425
6.31	5.12015
6.46	9.09946
6.61	62.3841
6.76	318.784
6.91	508.649
7.06	543.82
7.21	462.481
7.36	352.518
7.51	174.217
7.66	124.365
7.81	467.513
7.96	1243.61
8.11	1439.92
8.26	724.982
8.41	174.147
8.56	64.3949
8.71	44.1669
8.86	21.7629
9.01	27.6299
9.16	3.58707
9.31	22.7518
9.46	40.9141
9.61	30.4286
9.76	58.1348
9.91	59.9675
10.06	49.5304
10.21	37.7117
10.36	37.615
10.51	27.017
10.66	40.581
10.81	54.335
10.96	127.975
11.11	274.199
11.26	279.858
11.41	182.604
11.56	185.415
11.71	169.157
11.86	132.626
12.01	83.4462
12.16	86.1109
12.31	97.0972
12.46	100.55
12.61	121.364
12.76	221.183
12.91	1020.21
13.06	2878.59
13.21	4106.51
13.36	3174.57
13.51	1528.45
13.66	699.185
13.81	545.132
13.96	348.827
14.11	222.165
14.26	238.182
14.41	227.758
14.56	220.916
14.71	185.624
14.86	97.0036
15.01	33.6627
15.16	11.277
15.31	4.75696
15.46	20.6977
15.61	12.586
15.76	22.5631
15.91	187.864
16.06	400.566
16.21	393.333
16.36	186.282
16.51	48.4054
16.66	14.8946
16.81	4.7395
16.96	4.10272
17.11	19.7119
17.26	39.6346
17.41	41.0932
17.56	76.7312
17.71	231.724
17.86	344.861
18.01	346.244
18.16	315.459
18.31	281.34
18.46	169.472
18.61	47.0614
18.76	7.93558
18.91	4.06274
19.06	0.701172
19.21	1.36694
19.36	8.6796
19.51	9.9686
19.66	6.42319
19.81	7.07645
19.96	3.71573
20.11	11.5665
20.26	15.1774
20.41	168.712
20.56	640.447
20.71	1040.89
20.86	743.612
21.01	292.832
21.16	173.071
21.31	174.274
21.46	176.498
21.61	121.737
21.76	51.8519
21.91	53.8481
22.06	125.312
22.21	542.988
22.36	1254.64
22.51	1163.96
22.66	448.826
22.81	98.5344
22.96	48.916
23.11	69.7598
23.26	89.4167
23.41	203.135
23.56	325.646
23.71	351.243
23.86	268.939
24.01	144.88
24.16	67.0975
24.31	18.4416
24.46	8.56909
24.61	10.7884
24.76	7.17029
24.91	23.3549
25.06	88.5321
25.21	167.385
25.36	167.952
25.51	109.79
25.66	63.4989
25.81	117.649
25.96	252.946
26.11	344.084
26.26	426.389
26.41	471.07
26.56	435.976
26.71	447.012
26.86	392.31
27.01	240.515
27.16	162.905
27.31	135.926
27.46	163.675
27.61	278.628
27.76	320.953
27.91	187.242
28.06	48.5566
28.21	24.5053
28.36	69.7512
28.51	166.213
28.66	254.258
28.81	235.464
28.96	142.568
29.11	78.3241
29.26	48.0412
29.41	40.8888
29.56	29.192
29.71	39.4969
29.86	61.4416
30.01	56.3581
30.16	49.1656
30.31	48.3127
30.46	143.455
30.61	308.387
30.76	311.26
30.91	177.01
31.06	106.425
31.21	78.2463
31.36	61.6921
31.51	41.8154
31.66	26.4898
31.81	12.0731
31.96	3.43173
32.11	8.32602
32.26	14.6859
32.41	9.30844
32.56	14.0923
32.71	4.91836
32.86	52.7366
33.01	114.686
33.16	122.625
33.31	96.408
33.46	35.5989
33.61	51.4959
33.76	63.6437
33.91	78.4768
34.06	48.5137
34.21	40.2731
34.36	91.9915
34.51	228.313
34.66	290.8
34.81	251.333
34.96	135.206
35.11	59.0195
35.26	43.8368
35.41	50.2319
35.56	85.146
35.71	150.205
35.86	188.903
36.01	176.161
36.16	88.99
36.31	57.1133
36.46	132.8
36.61	246.458
36.76	236.486
36.91	149.682
37.06	76.3816
37.21	50.5654
37.36	38.0456
37.51	43.1391
37.66	32.2105
37.81	37.7857
37.96	25.0163
38.11	25.0243
38.26	28.5144
38.41	30.5146
38.56	22.0138
38.71	28.9234
38.86	17.049
39.01	26.2549
39.16	71.0713
39.31	78.0669
39.46	68.1647
39.61	50.789
39.76	54.2006
39.91	75.1107
40.06	65.5102
40.21	55.5601
40.36	24.3879
40.51	1.43161
40.66	12.7794
40.81	0.13858
40.96	4.12277
41.11	1.68066
41.26	14.0445
41.41	61.0575
41.56	112.828
41.71	134.454
41.86	135.01
42.01	122.092
42.16	106.518
42.31	79.1632
42.46	65.3136
42.61	58.1714
42.76	52.1888
42.91	40.2462
43.06	21.4618
43.21	19.4554
43.36	24.3772
43.51	25.9181
43.66	34.0866
43.81	29.1767
43.96	16.9041
44.11	29.1288
44.26	31.366
44.41	13.7809
44.56	7.52484
44.71	0.297791
44.86	0.356079
45.01	4.4697
45.16	4.04504
45.31	7.69379
45.46	28.3303
45.61	28.5031
45.76	28.3609
45.91	20.7692
46.06	4.17447
46.21	16.8937
46.36	30.9816
46.51	18.8268
46.66	17.9209
46.81	0.351654
46.96	4.97522
47.11	3.60074
47.26	10.9425
47.41	19.5332
47.56	55.1834
47.71	93.7733
47.86	128.038
48.01	123.065
48.16	85.64
48.31	48.3584
48.46	34.8134
48.61	40.0337
48.76	31.617
48.91	37.3418
49.06	35.8316
49.21	58.4233
49.36	61.7008
49.51	50.2036
49.66	38.278
49.81	10.4803
49.96	11.6448
50.11	9.10699
50.26	11.7027
50.41	29.7835
50.56	26.9736
50.71	43.5555
50.86	45.197
51.01	37.7909
51.16	25.1597
51.31	13.2712
51.46	18.7196
51.61	1.3889
51.76	7.14656
51.91	4.31844
52.06	1.5459
52.21	0.752533
52.36	2.01627
52.51	3.87299
52.66	11.6213
52.81	3.38542
52.96	16.171
53.11	26.2571
53.26	46.3882
53.41	39.353
53.56	28.5884
53.71	34.5768
53.86	18.5882
54.01	19.8792
54.16	22.0886
54.31	16.5215
54.46	23.275
54.61	41.3757
54.76	45.4676
54.91	35.7362
55.06	48.2315
55.21	40.4854
55.36	38.6007
55.51	29.2474
55.66	20.5045
55.81	13.9086
55.96	7.47801
56.11	9.72221
56.26	3.38814
56.41	3.84784
56.56	3.6409
56.71	7.95076
56.86	5.56491
57.01	5.74478
57.16	6.2213
57.31	13.5187
57.46	25.7129
57.61	2.15115
57.76	5.21823
57.91	8.74458
58.06	11.7266
58.21	16.9502
58.36	31.7094
58.51	28.1957
58.66	10.9182
58.81	11.4698
58.96	11.7624
59.11	11.6658
59.26	26.4662
59.41	18.0232
59.56	20.5372
59.71	21.3518
59.86	34.2458
60.01	25.7768
60.16	17.3204
60.31	16.3165
60.46	18.6347
60.61	9.48949
60.76	1.244
60.91	3.49756
61.06	19.4615
61.21	14.9707
61.36	18.7229
61.51	7.89475
61.66	23.0187
61.81	10.308
61.96	18.2924
62.11	20.2501
62.26	15.7725
62.41	7.84933
62.56	3.62135
62.71	1.83403
62.86	1.95781
63.01	3.01143
63.16	0.614182
63.31	6.86517
63.46	13.4256
63.61	18.0503
63.76	19.7522
63.91	24.4492
64.06	12.8236
64.21	20.5341
64.36	9.84132
64.51	12.9244
64.66	9.48024
64.81	0.799179
64.96	20.8394
