Measurement: Powder, Xray Data XY Processed
Mineral: Ferrimolybdite
Rruff sample: R050566
Ideal chemistry: Fe^3+^_2_(Mo^6+^O_4_)_3_7H_2_O
Locality: Kingman, Arizona, USA
Source: University of Arizona Mineral Museum
Description: Yellow fibrous aggregate
Diffraction sample description: Powder
Measured chemistry: Wavelength dispersive spectroscopy (WDS) scanning shows Mo and Fe only.
x	intensity
5	0
5.22	9.4649
5.44	0.441353
5.66	6.96596
5.88	16.5092
6.1	15.6611
6.32	4.32664
6.54	9.36932
6.76	26.3024
6.98	11.7025
7.2	1.41524
7.42	12.9334
7.64	10.6967
7.86	0.702377
8.08	10.3226
8.3	15.621
8.52	12.8734
8.74	16.6318
8.96	10.6624
9.18	7.35281
9.4	8.57194
9.62	24.9962
9.84	3.92868
10.06	13.3975
10.28	11.9065
10.5	5.40573
10.72	48.2803
10.94	21.0859
11.16	28.4619
11.38	24.2055
11.6	51.7951
11.82	7.31154
12.04	10.0833
12.26	3.90468
12.48	3.72297
12.7	2.53127
12.92	30.8089
13.14	33.2225
13.36	13.863
13.58	9.15167
13.8	6.26357
14.02	15.5376
14.24	6.85837
14.46	7.40583
14.68	2.84663
14.9	6.32087
15.12	7.54436
15.34	12.4798
15.56	5.79292
15.78	6.5491
16	3.53023
16.22	7.49077
16.44	0.449814
16.66	23.661
16.88	10.4131
17.1	13.223
17.32	15.9885
17.54	9.14608
17.76	9.9026
17.98	11.9314
18.2	18.0739
18.42	10.2465
18.64	23.5156
18.86	10.5879
19.08	11.9948
19.3	4.11207
19.52	16.4006
19.74	11.078
19.96	6.31965
20.18	15.9876
20.4	9.52302
20.62	12.8085
20.84	8.92076
21.06	9.78201
21.28	17.7124
21.5	3.49271
21.72	5.59345
21.94	12.5727
22.16	9.89178
22.38	0.196224
22.6	5.09939
22.82	3.662
23.04	7.18184
23.26	5.83696
23.48	3.87137
23.7	9.90458
23.92	6.43592
24.14	7.38897
24.36	7.97287
24.58	2.75358
24.8	17.0191
25.02	10.5508
25.24	31.1028
25.46	17.0253
25.68	11.8575
25.9	19.4985
26.12	18.1361
26.34	7.62035
26.56	17.8424
26.78	27.6616
27	13.2601
27.22	13.5818
27.44	12.0119
27.66	15.5409
27.88	16.2502
28.1	10.6793
28.32	13.6987
28.54	1.99466
28.76	7.39465
28.98	17.9258
29.2	24.4701
29.42	13.9762
29.64	9.66853
29.86	2.23113
30.08	11.4173
30.3	18.5593
30.52	9.85672
30.74	11.7435
30.96	15.4893
31.18	14.3675
31.4	15.5876
31.62	16.676
31.84	8.33449
32.06	4.97084
32.28	10.8812
32.5	0.573402
32.72	14.5998
32.94	10.5892
33.16	21.9141
33.38	6.76219
33.6	18.7158
33.82	14.5488
34.04	7.73837
34.26	11.8182
34.48	16.3083
34.7	23.5402
34.92	10.5819
35.14	19.5856
35.36	13.6571
35.58	15.5514
35.8	13.8442
36.02	6.89194
36.24	2.8669
36.46	16.1442
36.68	11.3724
36.9	6.76398
37.12	0.175644
37.34	5.43017
37.56	7.21891
37.78	10.554
38	3.04711
38.22	0.943781
38.44	0.003838
38.66	9.78945
38.88	4.31662
39.1	24.954
39.32	20.7227
39.54	14.007
39.76	26.0384
39.98	7.05949
40.2	11.7455
40.42	8.64708
40.64	10.0944
40.86	16.5257
41.08	7.73512
41.3	3.70143
41.52	17.7441
41.74	10.5225
41.96	26.1517
42.18	8.79956
42.4	18.7208
42.62	16.5215
42.84	0.0117
43.06	0.755987
43.28	6.95363
43.5	18.0919
43.72	4.43751
43.94	2.52291
44.16	20.6799
44.38	8.92585
44.6	4.32935
44.82	3.92333
45.04	13.5979
45.26	8.46256
45.48	15.4412
45.7	11.7752
45.92	9.86214
46.14	8.43201
46.36	15.3386
46.58	8.36499
46.8	15.2448
47.02	16.7272
47.24	12.652
47.46	7.21936
47.68	5.9883
47.9	19.9915
48.12	4.75625
48.34	7.75085
48.56	3.64048
48.78	17.4061
49	18.9893
49.22	18.0803
49.44	2.24077
49.66	5.69803
49.88	13.0057
50.1	5.0611
50.32	1.02155
50.54	4.00445
50.76	2.02503
50.98	14.0674
51.2	12.9412
51.42	9.05646
51.64	5.92664
51.86	9.90593
52.08	1.32983
52.3	11.6603
52.52	21.6439
52.74	21.6682
52.96	17.8844
53.18	5.59745
53.4	7.05459
53.62	2.30305
53.84	13.0082
54.06	3.60295
54.28	5.61147
54.5	10.0924
54.72	0.792067
54.94	16.3154
55.16	1.968
55.38	14.5606
55.6	8.52823
55.82	9.86382
56.04	12.1024
56.26	7.54097
56.48	6.89157
56.7	2.94912
56.92	7.33871
57.14	7.08275
57.36	7.30884
57.58	11.4793
57.8	11.5313
58.02	4.62568
58.24	15.5913
58.46	1.35309
58.68	18.1375
58.9	9.73923
59.12	6.76187
59.34	2.66779
59.56	5.55805
59.78	1.38295
60	19.1129
60.22	17.5643
60.44	4.55472
60.66	12.7108
60.88	10.592
61.1	6.62166
61.32	16.7051
61.54	9.94886
61.76	8.06429
61.98	2.12781
62.2	9.47081
62.42	3.23404
62.64	4.08731
62.86	11.0749
63.08	8.20083
63.3	1.69163
63.52	16.7058
63.74	5.79816
63.96	6.31806
64.18	2.59353
64.4	2.72548
64.62	13.6709
64.84	13.8177
65.06	9.78067
65.28	6.32106
65.5	14.3481
65.72	6.57451
65.94	10.2683
66.16	23.8754
66.38	17.0816
66.6	11.2719
66.82	9.12671
67.04	3.9169
67.26	9.90515
67.48	3.80689
67.7	8.80045
67.92	5.78786
68.14	8.66422
68.36	5.72928
68.58	11.4077
68.8	4.49567
69.02	9.07147
69.24	8.46626
69.46	1.52152
69.68	12.5746
69.9	14.3555
70.12	9.38838
70.34	11.4623
70.56	9.46281
70.78	13.605
71	0.473402
71.22	14.971
71.44	3.25721
71.66	9.41382
71.88	2.66501
72.1	14.2334
72.32	0.704056
72.54	2.16036
72.76	18.0307
72.98	12.1889
73.2	0.949961
73.42	5.12695
73.64	0.574087
73.86	9.56324
74.08	8.73814
74.3	8.56286
74.52	12.2873
74.74	12.0283
74.96	8.00708
75.18	5.94099
75.4	4.86449
75.62	15.7265
75.84	1.77597
76.06	17.4131
76.28	3.44223
76.5	1.29003
76.72	26.0834
76.94	16.1209
77.16	12.1052
77.38	9.30847
77.6	11.2713
77.82	1.27755
78.04	12.4027
78.26	4.43292
78.48	4.4026
78.7	2.499
78.92	14.5003
79.14	9.63899
79.36	11.4189
79.58	6.71854
79.8	6.43636
80.02	8.47761
80.24	9.348
80.46	20.1221
80.68	7.02799
80.9	7.04633
81.12	7.91609
81.34	11.9757
81.56	3.92339
81.78	3.43113
82	4.49159
82.22	0.603607
82.44	4.52659
82.66	0.630409
82.88	4.70059
83.1	1.8711
83.32	0.813988
83.54	25.2436
83.76	12.0553
83.98	17.0483
84.2	10.3882
84.42	11.7231
84.64	11.6313
84.86	6.72323
85.08	8.88913
85.3	0.360054
85.52	2.62229
85.74	11.0713
85.96	8.13451
86.18	12.5733
86.4	13.7307
86.62	9.73727
86.84	9.60318
87.06	6.57213
87.28	16.6725
87.5	6.5481
87.72	3.0751
87.94	9.61978
88.16	17.5601
88.38	5.66293
88.6	2.72453
88.82	17.006
89.04	14.874
89.26	6.78773
89.48	2.17686
89.7	8.63128
89.92	11.7691
