Measurement: Powder, Xray Data XY Processed
Mineral: Fluorapophyllite-(K)
Rruff sample: R050021
Ideal chemistry: KCa_4_Si_8_O_20_F8H_2_O
Locality: Poona, Maharashtra State, India
Source: Eugene Schlepp
Description: Colorless tetragonal prisms
Diffraction sample description: Powder
Measured chemistry: (K_0.98_Na_0.02_)_Σ=1_Ca_4.00_Si_8.00_O_20_(F_0.84_(OH)_0.16_)_Σ=1_·8H_2_O
Cell parameters: a: 8.9672(3) b: 8.9672(3) c: 15.8002(3) alpha: 90. beta: 90. gamma: 90. volume: 1270.51(8) crystal system: tetragonal
x	intensity
5	0
5.22	13.793
5.44	13.691
5.66	9.713
5.88	7.411
6.1	5.067
6.32	3.98
6.54	2.248
6.76	10.648
6.98	10.448
7.2	11.095
7.42	8.029
7.64	5.795
7.86	8.418
8.08	4.401
8.3	3.072
8.52	10.476
8.74	2.85
8.96	5.278
9.18	6.536
9.4	13.752
9.62	2.778
9.84	5.932
10.06	1.592
10.28	13.359
10.5	4.79
10.72	3.543
10.94	1.237
11.16	29.059
11.38	330.894
11.6	17.466
11.82	6.614
12.04	4.432
12.26	8.629
12.48	1.115
12.7	5.294
12.92	2.529
13.14	5.702
13.36	4.215
13.58	4.503
13.8	4.678
14.02	38.154
14.24	9.202
14.46	4.436
14.68	4.82
14.9	13.846
15.12	2.013
15.34	8.16
15.56	8.284
15.78	8.129
16	6.193
16.22	6.4
16.44	11.407
16.66	1.413
16.88	2.187
17.1	3.898
17.32	5.844
17.54	4.005
17.76	8.062
17.98	2.913
18.2	3.725
18.42	0.402
18.64	3.078
18.86	2.32
19.08	2.433
19.3	8.318
19.52	71.65
19.74	42.545
19.96	13.314
20.18	4.188
20.4	3.947
20.62	3.007
20.84	7.117
21.06	2.016
21.28	8.905
21.5	2.199
21.72	8.579
21.94	5.925
22.16	16.674
22.38	5.672
22.6	359.509
22.82	33.769
23.04	29.709
23.26	12.071
23.48	7.179
23.7	6.205
23.92	6.297
24.14	0.526
24.36	6.651
24.58	10.844
24.8	31.793
25.02	98.169
25.24	9.499
25.46	6.452
25.68	4.115
25.9	10.117
26.12	6.518
26.34	7.572
26.56	14.939
26.78	8.798
27	10.71
27.22	1.503
27.44	4.193
27.66	5.015
27.88	3.288
28.1	33.67
28.32	25.631
28.54	10.085
28.76	6.705
28.98	3.242
29.2	13.044
29.42	13.759
29.64	10.475
29.86	24.293
30.08	322.316
30.3	36.406
30.52	43.752
30.74	3.74
30.96	1.109
31.18	5.337
31.4	5.658
31.62	6.863
31.84	37.396
32.06	6.931
32.28	3.077
32.5	3.032
32.72	8.745
32.94	3.064
33.16	6.299
33.38	9.824
33.6	23.878
33.82	11.055
34.04	9.021
34.26	0.172
34.48	7.744
34.7	7.45
34.92	6.087
35.14	0.702
35.36	6.249
35.58	10.833
35.8	30.178
36.02	233.665
36.24	229.754
36.46	34.77
36.68	12.228
36.9	15.529
37.12	25.963
37.34	6.606
37.56	6.253
37.78	0.992
38	8.93
38.22	0.421
38.44	7.104
38.66	10.055
38.88	3.396
39.1	6.104
39.32	7.336
39.54	4.215
39.76	8.09
39.98	4.739
40.2	9.246
40.42	7.542
40.64	6.133
40.86	3.489
41.08	10.404
41.3	24.976
41.52	7.561
41.74	13.2
41.96	15.17
42.18	5.994
42.4	8.369
42.62	12.828
42.84	65.46
43.06	55.803
43.28	13.785
43.5	5.85
43.72	4.955
43.94	8.028
44.16	0.971
44.38	0.969
44.6	2.239
44.82	8.185
45.04	8.644
45.26	41.216
45.48	16.031
45.7	4.187
45.92	2.858
46.14	4.249
46.36	12.382
46.58	3.574
46.8	1.677
47.02	1.674
47.24	3.637
47.46	10.178
47.68	5.803
47.9	19.093
48.12	1.199
48.34	3.516
48.56	9.89
48.78	8.097
49	0.398
49.22	4.62
49.44	6.567
49.66	5.625
49.88	2.05
50.1	6.556
50.32	2.248
50.54	0.94
50.76	9.624
50.98	9.287
51.2	12.988
51.42	11.65
51.64	24.731
51.86	34.201
52.08	13.083
52.3	3.455
52.52	0.675
52.74	2.981
52.96	2.215
53.18	17.399
53.4	7.407
53.62	2.457
53.84	1.481
54.06	2.089
54.28	4.862
54.5	0.84
54.72	14.901
54.94	19.927
55.16	8.052
55.38	9.158
55.6	7.259
55.82	1.081
56.04	2.938
56.26	1.76
56.48	4.324
56.7	1.269
56.92	3.059
57.14	4.575
57.36	16.289
57.58	5.862
57.8	22.022
58.02	2.166
58.24	13.357
58.46	75.462
58.68	12.65
58.9	5.227
59.12	4.019
59.34	0.24
59.56	5.477
59.78	43.998
60	18.803
60.22	11.477
60.44	12.401
60.66	4.725
60.88	0.219
61.1	3.252
61.32	4.593
61.54	2.623
61.76	5.513
61.98	8.342
62.2	31.941
62.42	13.27
62.64	0.901
62.86	2.507
63.08	7.405
63.3	7.818
63.52	9.061
63.74	9.513
63.96	3.313
64.18	3.169
64.4	0.666
64.62	13.887
64.84	6.043
65.06	9.152
65.28	7.801
65.5	5.737
65.72	8.64
65.94	13.575
66.16	7.488
66.38	5.48
66.6	10.445
66.82	1.301
67.04	0.421
67.26	3.68
67.48	9.118
67.7	0.621
67.92	4.589
68.14	6.655
68.36	3.64
68.58	1.604
68.8	2.518
69.02	0.557
69.24	5.286
69.46	16.063
69.68	9.72
69.9	1.102
70.12	0.974
70.34	0.411
70.56	5.478
70.78	2.477
71	1.709
71.22	2.242
71.44	10.508
71.66	21.88
71.88	15.153
72.1	2.299
72.32	6.396
72.54	2.552
72.76	2.589
72.98	6.451
73.2	4.277
73.42	2.825
73.64	10.357
73.86	3.776
74.08	24.455
74.3	4.552
74.52	19.852
74.74	2.807
74.96	9.65
75.18	2.656
75.4	5.047
75.62	3.19
75.84	3.294
76.06	7.694
76.28	0.795
76.5	11.005
76.72	14.868
76.94	4.8
77.16	7.153
77.38	5.29
77.6	3.48
77.82	1.474
78.04	0.413
78.26	4.684
78.48	0.447
78.7	1.529
78.92	2.426
79.14	6.357
79.36	4.097
79.58	6.834
79.8	2.85
80.02	2.662
80.24	1.612
80.46	7.664
80.68	4.058
80.9	6.156
81.12	2.312
81.34	0.561
81.56	6.92
81.78	6.199
82	5.368
82.22	2.745
82.44	1.799
82.66	3.037
82.88	9.895
83.1	8.655
83.32	2.442
83.54	2.51
83.76	5.426
83.98	10.314
84.2	5.37
84.42	4.762
84.64	9.439
84.86	4.786
85.08	3.581
85.3	5.512
85.52	3.453
85.74	0.7
85.96	0.852
86.18	5.94
86.4	3.576
86.62	1.284
86.84	0.873
87.06	10.877
87.28	19.453
87.5	14.471
87.72	6.482
87.94	7.501
88.16	2.686
88.38	4.836
88.6	6.272
88.82	4.441
89.04	9.618
89.26	8.699
89.48	4.927
89.7	1.659
89.92	5.972
