Measurement: Powder, Xray Data XY Processed
Mineral: Fluoro-richterite
Rruff sample: R060290
Ideal chemistry: Na(NaCa)Mg_5_Si_8_O_22_F_2_
Locality: Koschka Valley, Badakshan Province, Afghanistan
Source: Herb Obodda
Description: Tan colored transparent prismatic crystal
Diffraction sample description: Powder
Cell parameters: a: 10.0007(5) b: 17.9784(8) c: 5.2710(4) alpha: 90 beta: 106.133(5) gamma: 90 volume: 910.38(7) crystal system: monoclinic
x	intensity
5	0
5.22	10.478
5.44	1.549
5.66	10.221
5.88	16.869
6.1	19.431
6.32	16.796
6.54	13.092
6.76	16.823
6.98	1.352
7.2	10.923
7.42	0.713
7.64	0.619
7.86	3.901
8.08	7.809
8.3	4.436
8.52	7.958
8.74	9.171
8.96	12.479
9.18	2.573
9.4	5.686
9.62	2.382
9.84	3.903
10.06	5.192
10.28	1.304
10.5	306.443
10.72	11.489
10.94	4.946
11.16	6.278
11.38	1.501
11.6	0.722
11.82	5.086
12.04	8.438
12.26	1.181
12.48	10.279
12.7	0.297
12.92	0.438
13.14	3.611
13.36	4.537
13.58	6.652
13.8	0.223
14.02	0.951
14.24	7.028
14.46	4.288
14.68	2.556
14.9	2.529
15.12	5.557
15.34	4.469
15.56	3.669
15.78	2.93
16	4.153
16.22	2.327
16.44	9.237
16.66	6.111
16.88	1.794
17.1	0.513
17.32	0.205
17.54	4.203
17.76	2.198
17.98	3.156
18.2	17.004
18.42	5.777
18.64	1.606
18.86	1.584
19.08	1.78
19.3	2.969
19.52	4.398
19.74	16.619
19.96	7.645
20.18	0.206
20.4	3.642
20.62	0.361
20.84	4.022
21.06	15.034
21.28	0.016
21.5	0.022
21.72	0.94
21.94	2.556
22.16	5.408
22.38	9.544
22.6	4.55
22.82	5.625
23.04	24.433
23.26	2.381
23.48	8.525
23.7	4.921
23.92	5.855
24.14	0.116
24.36	7.174
24.58	2.272
24.8	6.073
25.02	2.923
25.24	0.555
25.46	6.049
25.68	0.942
25.9	6.76
26.12	5.056
26.34	35.559
26.56	4.973
26.78	2.052
27	6.592
27.22	260.22
27.44	5.879
27.66	3.966
27.88	0.52
28.1	10.213
28.32	203.033
28.54	23.183
28.76	4.688
28.98	0.396
29.2	0.255
29.42	20.586
29.64	1.92
29.86	4.539
30.08	5.958
30.3	105.592
30.52	14.91
30.74	5.087
30.96	4.087
31.18	0.687
31.4	2.442
31.62	12.42
31.84	38.402
32.06	3.149
32.28	1.725
32.5	4.453
32.72	87.368
32.94	9.658
33.16	108.957
33.38	10.936
33.6	2.665
33.82	0.305
34.04	1.976
34.26	0.196
34.48	9.246
34.7	25.375
34.92	15.694
35.14	9.009
35.36	9.018
35.58	43.132
35.8	9.076
36.02	0.351
36.24	0.611
36.46	0.297
36.68	0.668
36.9	5.3
37.12	4.496
37.34	6.963
37.56	13.382
37.78	17.762
38	2.653
38.22	0.497
38.44	22.324
38.66	40.23
38.88	3.63
39.1	3.871
39.32	11.13
39.54	8.044
39.76	7.123
39.98	3.452
40.2	6.563
40.42	1.354
40.64	3.18
40.86	7.164
41.08	10.251
41.3	1.877
41.52	4.819
41.74	26.456
41.96	9.986
42.18	9.348
42.4	4.561
42.62	1.143
42.84	0.936
43.06	1.008
43.28	0.344
43.5	2.292
43.72	10.204
43.94	2.126
44.16	13.101
44.38	9.649
44.6	5.611
44.82	35.675
45.04	15.694
45.26	9.636
45.48	0.596
45.7	3.552
45.92	3.538
46.14	5.818
46.36	4.735
46.58	7.688
46.8	1.54
47.02	8.491
47.24	0.278
47.46	5.179
47.68	49.2
47.9	2.139
48.12	1.037
48.34	6.008
48.56	9.777
48.78	0.249
49	14.96
49.22	4.363
49.44	6.069
49.66	10.244
49.88	30.386
50.1	4.786
50.32	1.155
50.54	1.675
50.76	1.23
50.98	6.444
51.2	7.708
51.42	9.975
51.64	4.774
51.86	0.507
52.08	2.825
52.3	7.871
52.52	5.777
52.74	8.063
52.96	2.851
53.18	5.531
53.4	3.269
53.62	0.956
53.84	2.399
54.06	0.834
54.28	0.325
54.5	0.34
54.72	9.047
54.94	1.636
55.16	1.116
55.38	20.005
55.6	40.201
55.82	8.68
56.04	16.961
56.26	5.145
56.48	5.198
56.7	0.269
56.92	3.877
57.14	10.241
57.36	13.412
57.58	24.416
57.8	14.158
58.02	0.2
58.24	0.204
58.46	2.394
58.68	7.738
58.9	6.668
59.12	7.529
59.34	7.333
59.56	0.627
59.78	2.534
60	29.661
60.22	17.626
60.44	4.678
60.66	1.737
60.88	3.453
61.1	3.099
61.32	17.541
61.54	19.205
61.76	16.062
61.98	26.692
62.2	4.674
62.42	1.643
62.64	0.105
62.86	6.681
63.08	9.504
63.3	0.353
63.52	3.189
63.74	5.58
63.96	22.048
64.18	2.304
64.4	64.329
64.62	55.645
64.84	4.929
65.06	4.958
65.28	3.29
65.5	4.679
65.72	1.114
65.94	1.455
66.16	10.04
66.38	3.32
66.6	2.615
66.82	0.732
67.04	3.118
67.26	0.586
67.48	0.251
67.7	3.641
67.92	6.449
68.14	9.22
68.36	11.149
68.58	10.186
68.8	8.14
69.02	6.705
69.24	4.559
69.46	4.499
69.68	0.46
69.9	3.598
70.12	6.861
70.34	3.759
70.56	9.656
70.78	12.323
71	3.189
71.22	3.118
71.44	5.107
71.66	11.114
71.88	3.292
72.1	3.269
72.32	0.024
72.54	2.75
72.76	2.939
72.98	0.602
73.2	4.444
73.42	29.138
73.64	16.204
73.86	1.436
74.08	3.59
74.3	1.587
74.52	2.996
74.74	3.394
74.96	2.836
75.18	6.103
75.4	4.115
75.62	0.337
75.84	0.55
76.06	0.268
76.28	0.449
76.5	6.607
76.72	3.621
76.94	3.451
77.16	3.258
77.38	3.017
77.6	0.416
77.82	0.639
78.04	1.259
78.26	4.791
78.48	5.692
78.7	2.704
78.92	5.648
79.14	5.616
79.36	6.607
79.58	6.824
79.8	5.827
80.02	11.04
80.24	5.071
80.46	2.287
80.68	9.04
80.9	5.185
81.12	1.603
81.34	0.744
81.56	1.748
81.78	2.672
82	2.526
82.22	4.576
82.44	9.545
82.66	1.543
82.88	2.312
83.1	2.359
83.32	0.292
83.54	3.869
83.76	1.012
83.98	6.273
84.2	3.402
84.42	7.556
84.64	8.5
84.86	4.236
85.08	0.105
85.3	3.183
85.52	6.068
85.74	2.096
85.96	8.06
86.18	5.011
86.4	2.853
86.62	5.8
86.84	2.774
87.06	3.878
87.28	2.944
87.5	1.176
87.72	3.322
87.94	2.438
88.16	3.502
88.38	4.704
88.6	0.684
88.82	1.703
89.04	1.867
89.26	7.099
89.48	9.839
89.7	7.12
89.92	5.559
