Measurement: Powder, Xray Data XY Processed
Mineral: Fluorophlogopite
Rruff sample: R040075
Ideal chemistry: KMg_3_(Si_3_Al)O_10_F_2_
Locality: unknown
Source: University of Arizona Mineral Museum
Description: Green hexagonal tablet
Diffraction sample description: Powder
Measured chemistry: (K_0.93_[box]_0.04_Na_0.03_)(Mg_0.66_Fe_0.30_Ti_0.02_)_3_(Si_0.75_Al_0.25_)_4_O_10_(F_0.90_(OH)_0.06_Cl_0.04_)
Cell parameters: a: 5.332(2) b: 9.231(2) c: 10.1890(6) alpha: 90. beta: 100.13(2) gamma: 90. volume: 493.7(2) crystal system: monoclinic
x	intensity
5	0
5.22	24.149
5.44	25.484
5.66	2.127
5.88	24.202
6.1	14.108
6.32	15.796
6.54	3.818
6.76	6.945
6.98	13.874
7.2	11.485
7.42	13.381
7.64	1.092
7.86	36.101
8.08	9.84
8.3	15.024
8.52	27.102
8.74	485.56
8.96	262.75
9.18	50.272
9.4	9.982
9.62	18.462
9.84	1.713
10.06	13.796
10.28	16.549
10.5	20.006
10.72	10.148
10.94	11.273
11.16	13.15
11.38	20.97
11.6	0.202
11.82	8.597
12.04	10.313
12.26	16.515
12.48	9.841
12.7	10.755
12.92	10.514
13.14	2.099
13.36	15.403
13.58	26.013
13.8	0.576
14.02	24.416
14.24	9.498
14.46	9.225
14.68	8.196
14.9	4.75
15.12	7.739
15.34	17.623
15.56	3.565
15.78	16.584
16	8.016
16.22	9.182
16.44	8.182
16.66	11.871
16.88	13.558
17.1	3.464
17.32	7.942
17.54	10.346
17.76	27.425
17.98	8.836
18.2	5.82
18.42	1.524
18.64	12.982
18.86	15.01
19.08	21.82
19.3	23.33
19.52	29.449
19.74	10.687
19.96	19.788
20.18	20.686
20.4	4.597
20.62	18.046
20.84	15.118
21.06	8.797
21.28	10.917
21.5	5.974
21.72	0.988
21.94	16.977
22.16	9.575
22.38	9.149
22.6	29.494
22.82	1.093
23.04	26.11
23.26	12.522
23.48	9.387
23.7	8.872
23.92	27.044
24.14	21.463
24.36	24.664
24.58	15.319
24.8	5.622
25.02	11.481
25.24	12.411
25.46	31.547
25.68	42.745
25.9	15.951
26.12	27.995
26.34	39.441
26.56	86.409
26.78	471.402
27	2.443
27.22	14.495
27.44	7.426
27.66	10.674
27.88	2.751
28.1	1.653
28.32	44.413
28.54	36.154
28.76	21.336
28.98	15.166
29.2	2.632
29.42	10.002
29.64	5.937
29.86	1.068
30.08	1.198
30.3	13.678
30.52	14.976
30.74	42.245
30.96	16.001
31.18	5.469
31.4	26.485
31.62	3.948
31.84	21.524
32.06	11.083
32.28	20.343
32.5	10.413
32.72	26.828
32.94	6.924
33.16	24.563
33.38	11.274
33.6	4.848
33.82	15.866
34.04	21.633
34.26	25.828
34.48	14.833
34.7	26.051
34.92	27.938
35.14	68.633
35.36	53.122
35.58	49.21
35.8	118.032
36.02	12.537
36.24	2.579
36.46	15.188
36.68	24.705
36.9	52.317
37.12	18.117
37.34	2.388
37.56	14.833
37.78	26.08
38	37.067
38.22	12.941
38.44	15.717
38.66	6.949
38.88	9.785
39.1	22.606
39.32	18.382
39.54	7.695
39.76	7.659
39.98	12.537
40.2	0.59
40.42	21.452
40.64	12.222
40.86	4.433
41.08	7.088
41.3	17.861
41.52	41.876
41.74	8.288
41.96	15.99
42.18	0.711
42.4	3.937
42.62	5.442
42.84	7.221
43.06	16.158
43.28	48.575
43.5	71.702
43.72	31.264
43.94	14.962
44.16	17.192
44.38	10.442
44.6	17.671
44.82	26.365
45.04	9.389
45.26	108.9
45.48	27.151
45.7	7.813
45.92	7.25
46.14	6.3
46.36	9.56
46.58	6.595
46.8	27.575
47.02	9.998
47.24	17.609
47.46	16.927
47.68	23.631
47.9	14.428
48.12	8.315
48.34	2.449
48.56	11.265
48.78	1.501
49	7.873
49.22	1.393
49.44	7.236
49.66	16.462
49.88	7.043
50.1	4.935
50.32	17.55
50.54	2.798
50.76	11.765
50.98	1.285
51.2	5.579
51.42	7.352
51.64	1.759
51.86	13.871
52.08	20.24
52.3	21.346
52.52	30.899
52.74	20.461
52.96	4.855
53.18	2.802
53.4	6.242
53.62	11.2
53.84	14.285
54.06	11.422
54.28	1.613
54.5	0.736
54.72	24.771
54.94	80.022
55.16	23.727
55.38	12.269
55.6	16.726
55.82	15.21
56.04	20
56.26	13.604
56.48	3.121
56.7	17.543
56.92	4.885
57.14	24.441
57.36	38.282
57.58	45.672
57.8	11.611
58.02	9.027
58.24	2.825
58.46	4.358
58.68	7.803
58.9	11.269
59.12	16.771
59.34	16.206
59.56	12.32
59.78	0.852
60	36.596
60.22	22.794
60.44	15.488
60.66	18.484
60.88	0.013
61.1	1.102
61.32	12.319
61.54	15.875
61.76	13.444
61.98	4.76
62.2	4.88
62.42	3.55
62.64	11.151
62.86	18.034
63.08	6.488
63.3	20.64
63.52	23.895
63.74	3.932
63.96	2.499
64.18	16.866
64.4	4.675
64.62	9.876
64.84	24.545
65.06	47.953
65.28	40.048
65.5	6.391
65.72	0.659
65.94	20.261
66.16	7.888
66.38	11.301
66.6	20.91
66.82	14.445
67.04	8.047
67.26	3.669
67.48	10.32
67.7	3.023
67.92	8.973
68.14	33.124
68.36	25.495
68.58	25.955
68.8	10.784
69.02	25.152
69.24	17.174
69.46	2.699
69.68	12.164
69.9	8.077
70.12	8.741
70.34	12.299
70.56	2.737
70.78	18.139
71	12.386
71.22	6.74
71.44	0.095
71.66	7.293
71.88	11.028
72.1	2.475
72.32	0.765
72.54	0.708
72.76	2.782
72.98	7.935
73.2	7.26
73.42	18.736
73.64	6.617
73.86	10.87
74.08	0.455
74.3	6.322
74.52	1.42
74.74	2.068
74.96	1.259
75.18	0.53
75.4	18.061
75.62	0.066
75.84	48.126
76.06	36.006
76.28	11.753
76.5	19.23
76.72	9.613
76.94	19.074
77.16	14.856
77.38	11.003
77.6	25.835
77.82	10.328
78.04	2.504
78.26	2.088
78.48	3.518
78.7	14.283
78.92	9.341
79.14	2.383
79.36	5.945
79.58	6.716
79.8	22.112
80.02	13.233
80.24	9.819
80.46	10.954
80.68	4.099
80.9	9.719
81.12	9.601
81.34	3.378
81.56	9.143
81.78	2.113
82	9.046
82.22	1.004
82.44	1.071
82.66	4.731
82.88	5.385
83.1	9.132
83.32	0.517
83.54	14.423
83.76	1.676
83.98	1.747
84.2	11.773
84.42	11.404
84.64	5.205
84.86	19.123
85.08	1.272
85.3	14.863
85.52	1.62
85.74	12.607
85.96	7.606
86.18	9.651
86.4	5.099
86.62	11.628
86.84	2.978
87.06	6.037
87.28	17.126
87.5	6.276
87.72	9.627
87.94	4.784
88.16	6.019
88.38	12.572
88.6	12.91
88.82	2.927
89.04	1.183
89.26	13
89.48	7.623
89.7	12.276
89.92	17.439
