Measurement: Powder, Xray Data XY Processed
Mineral: Fluorapatite
Rruff sample: R050192
Ideal chemistry: Ca_5_(PO_4_)_3_F
Locality: Fulford, Eagle County, Colorado, USA
Source: Dave Bunk Minerals
Description: Pale green hexagonal prism
Diffraction sample description: Powder
Measured chemistry: Ca_5.00_(P_1.00_O_4_)_3_(F_0.86_Cl_0.13_)
Cell parameters: a: 9.4242(1) b: 9.4242(1) c: 6.8738(2) alpha: 90. beta: 90. gamma: 120. volume: 528.71(1) crystal system: hexagonal
x	intensity
5	0
5.22	15.6168
5.44	4.2453
5.66	3.72134
5.88	11.5047
6.1	8.50829
6.32	10.7862
6.54	12.8872
6.76	17.9775
6.98	19.7913
7.2	23.2763
7.42	9.81954
7.64	6.16703
7.86	10.7998
8.08	11.3751
8.3	3.10049
8.52	4.6551
8.74	0.021553
8.96	4.3626
9.18	6.71395
9.4	6.34292
9.62	6.20603
9.84	12.0938
10.06	1.95996
10.28	0.986292
10.5	5.03583
10.72	6.78643
10.94	15.8593
11.16	5.05245
11.38	2.69461
11.6	0.44494
11.82	5.76325
12.04	7.07634
12.26	5.37884
12.48	2.65361
12.7	2.92973
12.92	6.14934
13.14	14.4581
13.36	7.43844
13.58	17.3243
13.8	2.41219
14.02	7.2055
14.24	7.2232
14.46	7.07469
14.68	5.21457
14.9	6.31039
15.12	8.16306
15.34	3.27575
15.56	6.08624
15.78	9.15225
16	0.216911
16.22	10.3012
16.44	6.43264
16.66	3.69436
16.88	27.7976
17.1	1.8699
17.32	5.8779
17.54	4.94526
17.76	2.93272
17.98	4.14533
18.2	1.29352
18.42	3.61481
18.64	0.05022
18.86	15.9659
19.08	2.10105
19.3	1.24269
19.52	4.23131
19.74	0.692977
19.96	1.32201
20.18	9.39902
20.4	8.59074
20.62	6.44774
20.84	7.35245
21.06	6.98797
21.28	10.0276
21.5	2.94773
21.72	7.87193
21.94	12.7657
22.16	11.6852
22.38	3.74523
22.6	5.6878
22.82	2.68021
23.04	4.76608
23.26	2.84196
23.48	5.92409
23.7	3.21511
23.92	1.22813
24.14	2.36953
24.36	3.4399
24.58	1.43944
24.8	1.37148
25.02	1.29574
25.24	2.10071
25.46	15.0722
25.68	5.23959
25.9	63.1064
26.12	16.1717
26.34	6.1338
26.56	5.94616
26.78	6.20735
27	0.865689
27.22	1.9449
27.44	2.95964
27.66	1.90045
27.88	8.79671
28.1	12.5245
28.32	11.5038
28.54	6.30714
28.76	5.76652
28.98	74.818
29.2	0.81531
29.42	3.85277
29.64	8.92693
29.86	1.01428
30.08	7.98568
30.3	4.99549
30.52	3.56929
30.74	3.02426
30.96	3.35956
31.18	2.551
31.4	3.00438
31.62	6.41075
31.84	335.881
32.06	18.5989
32.28	152.21
32.5	5.57179
32.72	2.36827
32.94	233.958
33.16	15.2599
33.38	2.72707
33.6	1.83582
33.82	2.02244
34.04	18.362
34.26	19.8495
34.48	4.22414
34.7	1.48771
34.92	6.26134
35.14	2.62484
35.36	4.80664
35.58	18.1305
35.8	7.43795
36.02	1.56921
36.24	3.36638
36.46	4.61704
36.68	3.74467
36.9	3.94116
37.12	0.156177
37.34	2.30976
37.56	6.19586
37.78	10.3906
38	1.46327
38.22	4.1744
38.44	3.06711
38.66	2.88424
38.88	1.3023
39.1	10.4957
39.32	18.2937
39.54	7.05462
39.76	18.9362
39.98	22.9472
40.2	0.860068
40.42	0.26442
40.64	3.82081
40.86	2.12017
41.08	7.20857
41.3	2.2901
41.52	0.6633
41.74	4.76125
41.96	8.97836
42.18	12.8613
42.4	6.75805
42.62	6.60589
42.84	2.52284
43.06	3.40607
43.28	4.0975
43.5	7.13669
43.72	2.38367
43.94	29.0505
44.16	2.89626
44.38	11.8125
44.6	2.88936
44.82	1.13147
45.04	2.21202
45.26	5.30313
45.48	12.2967
45.7	4.29272
45.92	0.062862
46.14	0.133001
46.36	2.04042
46.58	14.9251
46.8	39.8789
47.02	14.5984
47.24	1.05602
47.46	3.6856
47.68	4.28563
47.9	5.2638
48.12	56.0944
48.34	9.84017
48.56	6.40516
48.78	5.00302
49	0.111731
49.22	2.14736
49.44	10.079
49.66	71.0802
49.88	10.2135
50.1	4.44608
50.32	3.2883
50.54	37.4211
50.76	10.8923
50.98	0.085876
51.2	2.27632
51.42	37.3142
51.64	1.44147
51.86	0.884545
52.08	14.1187
52.3	19.1797
52.52	2.44361
52.74	4.93957
52.96	3.15409
53.18	5.243
53.4	22.5864
53.62	6.88631
53.84	2.09846
54.06	7.05544
54.28	3.21829
54.5	3.43458
54.72	7.48077
54.94	4.48668
55.16	1.18365
55.38	0.036419
55.6	6.0817
55.82	9.99836
56.04	73.849
56.26	4.73061
56.48	2.69146
56.7	0.979077
56.92	6.93832
57.14	5.01515
57.36	10.1549
57.58	5.57786
57.8	0.618495
58.02	5.62827
58.24	4.84986
58.46	4.89666
58.68	0.848249
58.9	7.53267
59.12	0.301402
59.34	3.18966
59.56	2.07684
59.78	3.89509
60	246.93
60.22	24.0145
60.44	10.0152
60.66	5.73324
60.88	2.67237
61.1	0.887324
61.32	0.052971
61.54	5.07769
61.76	33.107
61.98	11.9727
62.2	0.106507
62.42	0.477794
62.64	3.40494
62.86	4.21095
63.08	16.075
63.3	3.95843
63.52	2.87313
63.74	5.75267
63.96	4.67483
64.18	13.6763
64.4	12.7612
64.62	4.008
64.84	1.28573
65.06	18.39
65.28	5.6643
65.5	1.89111
65.72	1.86669
65.94	0.986617
66.16	0.723262
66.38	7.68448
66.6	6.89879
66.82	5.08422
67.04	5.14364
67.26	3.04547
67.48	0.819796
67.7	5.20574
67.92	1.23931
68.14	1.47704
68.36	1.48175
68.58	4.49188
68.8	3.21521
69.02	1.22192
69.24	3.17845
69.46	1.28821
69.68	5.36475
69.9	6.23043
70.12	8.22333
70.34	5.1844
70.56	1.10818
70.78	0.754871
71	5.64564
71.22	0.549527
71.44	3.44528
71.66	17.5142
71.88	12.3931
72.1	3.15732
72.32	8.19136
72.54	5.11979
72.76	0.092225
72.98	7.05599
73.2	10.0257
73.42	9.19717
73.64	7.25649
73.86	3.46251
74.08	13.1036
74.3	10.0476
74.52	1.94521
74.74	0.821679
74.96	3.65159
75.18	3.49868
75.4	2.34658
75.62	5.26164
75.84	8.09754
76.06	9.66388
76.28	1.56943
76.5	4.73256
76.72	3.86769
76.94	3.86651
77.16	23.8925
77.38	12.0305
77.6	2.21688
77.82	2.52135
78.04	4.77463
78.26	11.9279
78.48	7.17469
78.7	0.52045
78.92	2.63959
79.14	2.76275
79.36	1.02735
79.58	4.33515
79.8	2.50793
80.02	2.60248
80.24	3.44586
80.46	0.564499
80.68	1.4085
80.9	6.36648
81.12	7.26535
81.34	1.0575
81.56	4.93112
81.78	4.71033
82	5.69662
82.22	4.51004
82.44	2.31719
82.66	7.13777
82.88	0.160796
83.1	4.08674
83.32	6.9921
83.54	1.85372
83.76	4.95021
83.98	1.9829
84.2	3.11929
84.42	1.0193
84.64	10.1067
84.86	2.23134
85.08	1.40907
85.3	3.4349
85.52	9.82165
85.74	8.93637
85.96	0.938671
86.18	3.81578
86.4	0.479208
86.62	0.383276
86.84	0.757753
87.06	3.11045
87.28	2.95835
87.5	10.6957
87.72	3.4537
87.94	6.33277
88.16	3.38276
88.38	10.4033
88.6	7.5923
88.82	7.84211
89.04	2.12174
89.26	1.50397
89.48	2.10471
89.7	4.26267
89.92	4.80879
