Measurement: Powder, Xray Data XY Processed
Mineral: Fluoro-edenite
Rruff sample: R070003
Ideal chemistry: NaCa_2_Mg_5_(Si_7_Al)O_22_F_2_
Locality: Cobden, Ontario, Canada
Source: Michael Scott
Description: Black to very dark green single crystal fragment
Diffraction sample description: Powder
Measured chemistry: (Na_0.55_K_0.35_[box]_0.10_)_Σ=1_(Ca_1.65_Na_0.35_)_Σ=2_(Mg_2.42_Fe^2+^_1.81_Fe^3+^_0.52_Al_0.14_Ti_0.07_Mn_0.04_)_Σ=5_(Si_6.65_Al_1.35_)O_22_(F_1.03_(OH)_0.94_Cl_0.03_)_Σ=2_; (OH) estimated by difference
Cell parameters: a: 9.9119(2) b: 18.1029(6) c: 5.3142(2) alpha: 90 beta: 105.004(3) gamma: 90 volume: 921.04(4) crystal system: monoclinic
x	intensity
5	0
5.22	23.3078
5.44	5.41728
5.66	31.3691
5.88	10.1247
6.1	17.01
6.32	18.5626
6.54	26.3217
6.76	12.299
6.98	15.5846
7.2	22.0208
7.42	10.4997
7.64	20.2612
7.86	19.4561
8.08	26.7035
8.3	28.5952
8.52	27.4798
8.74	12.3067
8.96	12.9939
9.18	31.1529
9.4	12.4717
9.62	24.4951
9.84	9.49785
10.06	25.8781
10.28	51.6983
10.5	539.685
10.72	11.0666
10.94	3.65044
11.16	23.1219
11.38	8.99857
11.6	14.6023
11.82	9.69675
12.04	10.236
12.26	24.6461
12.48	23.4534
12.7	31.9257
12.92	16.839
13.14	23.1311
13.36	16.3639
13.58	14.9148
13.8	12.3097
14.02	20.7331
14.24	2.19109
14.46	9.69579
14.68	13.6697
14.9	5.75203
15.12	0.767136
15.34	1.81364
15.56	8.92136
15.78	29.4712
16	33.4613
16.22	22.3911
16.44	24.4708
16.66	4.84973
16.88	23.7345
17.1	17.6121
17.32	14.4319
17.54	9.59305
17.76	11.3565
17.98	17.4734
18.2	19.7991
18.42	17.8684
18.64	27.6505
18.86	23.5767
19.08	4.09568
19.3	12.1216
19.52	33.4748
19.74	18.6531
19.96	16.026
20.18	6.08398
20.4	16.4322
20.62	6.93678
20.84	22.1353
21.06	30.9381
21.28	14.8714
21.5	6.03974
21.72	8.91113
21.94	22.3882
22.16	17.4886
22.38	23.2081
22.6	0.349632
22.82	20.7978
23.04	7.64065
23.26	5.34876
23.48	18.0121
23.7	25.646
23.92	15.3332
24.14	11.4178
24.36	18.9074
24.58	7.6228
24.8	3.46642
25.02	22.3134
25.24	29.9814
25.46	6.46968
25.68	4.92044
25.9	7.57156
26.12	18.2173
26.34	60.7942
26.56	23.4322
26.78	22.1858
27	26.7411
27.22	34.0964
27.44	1.90779
27.66	10.5001
27.88	11.0057
28.1	1.55564
28.32	95.9193
28.54	59.7683
28.76	8.7617
28.98	26.4559
29.2	6.26
29.42	4.93253
29.64	25.3054
29.86	16.8156
30.08	5.5754
30.3	100.981
30.52	23.4358
30.74	7.24942
30.96	3.58414
31.18	5.26952
31.4	0.66375
31.62	29.3143
31.84	33.4924
32.06	20.1621
32.28	3.13776
32.5	88.4106
32.72	19.0536
32.94	117.105
33.16	31.847
33.38	6.77179
33.6	20.8175
33.82	15.8563
34.04	17.283
34.26	12.7086
34.48	128.293
34.7	20.777
34.92	42.5216
35.14	94.9374
35.36	21.0975
35.58	15.071
35.8	13.9691
36.02	12.2112
36.24	25.6475
36.46	28.1501
36.68	6.64598
36.9	19.8855
37.12	8.42257
37.34	7.68411
37.56	124.136
37.78	18.3055
38	27.0954
38.22	45.4297
38.44	84.2704
38.66	6.5862
38.88	13.8529
39.1	27.1593
39.32	7.68851
39.54	20.146
39.76	9.03633
39.98	17.0462
40.2	14.1749
40.42	0.473686
40.64	14.8067
40.86	2.67086
41.08	0.790993
41.3	24.6712
41.52	21.5427
41.74	68.916
41.96	32.2844
42.18	14.198
42.4	18.8499
42.62	21.7549
42.84	16.8218
43.06	5.2166
43.28	1.87319
43.5	9.96994
43.72	36.9989
43.94	27.8372
44.16	20.3287
44.38	26.5803
44.6	15.0321
44.82	34.2885
45.04	33.1431
45.26	23.8649
45.48	2.80924
45.7	19.4557
45.92	0.825356
46.14	0.647423
46.36	14.6083
46.58	3.2564
46.8	14.1596
47.02	9.86697
47.24	8.97608
47.46	22.3476
47.68	8.54539
47.9	16.3089
48.12	18.5315
48.34	21.0486
48.56	22.5908
48.78	26.0009
49	13.8741
49.22	22.6877
49.44	24.3133
49.66	11.6508
49.88	16.4792
50.1	26.9411
50.32	20.8712
50.54	27.0869
50.76	20.0216
50.98	15.8324
51.2	3.34417
51.42	15.2407
51.64	12.4766
51.86	16.6369
52.08	29.979
52.3	11.6655
52.52	16.4114
52.74	15.6712
52.96	19.1442
53.18	2.58192
53.4	7.11808
53.62	16.5547
53.84	12.6417
54.06	7.3229
54.28	31.7049
54.5	40.0134
54.72	9.77177
54.94	33.5683
55.16	11.9683
55.38	34.2214
55.6	78.7007
55.82	11.6212
56.04	21.5922
56.26	4.53824
56.48	21.258
56.7	65.3061
56.92	24.235
57.14	20.9426
57.36	18.7108
57.58	16.937
57.8	21.6247
58.02	37.0062
58.24	23.5113
58.46	11.2554
58.68	20.8699
58.9	26.9926
59.12	11.33
59.34	36.726
59.56	25.0562
59.78	22.5252
60	2.2378
60.22	33.23
60.44	14.8661
60.66	1.96137
60.88	25.6538
61.1	14.209
61.32	26.8815
61.54	23.5082
61.76	8.81412
61.98	16.9402
62.2	8.331
62.42	14.4683
62.64	7.52225
62.86	10.7286
63.08	15.713
63.3	17.2845
63.52	36.9722
63.74	16.1179
63.96	7.52397
64.18	17.1711
64.4	31.5667
64.62	14.4966
64.84	26.2031
65.06	2.43497
65.28	9.82982
65.5	17.8838
65.72	4.65675
65.94	6.17684
66.16	7.53665
66.38	20.1652
66.6	13.3287
66.82	21.6711
67.04	7.44313
67.26	21.6199
67.48	16.2306
67.7	26.8019
67.92	3.96021
68.14	15.9349
68.36	19.0469
68.58	24.468
68.8	66.2496
69.02	17.7442
69.24	33.9702
69.46	2.37622
69.68	19.7873
69.9	21.6842
70.12	33.434
70.34	10.8267
70.56	10.6825
70.78	20.3203
71	23.5073
71.22	6.94042
71.44	20.0094
71.66	0.785866
71.88	23.3478
72.1	25.1861
72.32	2.96114
72.54	22.7757
72.76	19.0123
72.98	29.078
73.2	35.2583
73.42	11.525
73.64	16.9794
73.86	26.0959
74.08	26.1005
74.3	13.6104
74.52	14.1525
74.74	16.0712
74.96	21.076
75.18	6.45642
75.4	5.61576
75.62	20.2934
75.84	2.06821
76.06	5.20951
76.28	4.46926
76.5	11.1692
76.72	0.046036
76.94	16.3377
77.16	15.8401
77.38	21.2783
77.6	37.4952
77.82	30.1529
78.04	30.4114
78.26	11.553
78.48	17.169
78.7	22.9762
78.92	21.7018
79.14	0.42971
79.36	29.416
79.58	9.796
79.8	18.7042
80.02	18.1131
80.24	0.628502
80.46	0.414055
80.68	18.9114
80.9	9.96971
81.12	26.98
81.34	13.8786
81.56	13.117
81.78	1.95081
82	12.9543
82.22	25.0244
82.44	9.73295
82.66	19.5417
82.88	8.85813
83.1	9.99704
83.32	10.153
83.54	5.45345
83.76	10.1831
83.98	9.20216
84.2	6.55129
84.42	14.0673
84.64	15.1959
84.86	24.3095
85.08	6.40092
85.3	14.9933
85.52	16.311
85.74	26.5619
85.96	13.0624
86.18	17.3995
86.4	8.46481
86.62	0.253654
86.84	14.3176
87.06	12.5697
87.28	4.85801
87.5	32.1798
87.72	15.751
87.94	2.7991
88.16	6.45684
88.38	9.63594
88.6	27.7705
88.82	12.1536
89.04	15.9767
89.26	21.1092
89.48	26.2723
89.7	11.7627
89.92	15.2058
