Measurement: Powder, Xray Data XY Processed
Mineral: Fluorapatite
Rruff sample: R050194
Ideal chemistry: Ca_5_(PO_4_)_3_F
Locality: Siglo XX mine, Llallagua, Bolivia
Source: Dave Bunk Minerals
Description: Purple crystal fragments
Diffraction sample description: Powder
Measured chemistry: Ca_5.00_(P_1.00_O_4_)_3_F_1.00_
Cell parameters: a: 9.3715(2) b: 9.3715(2) c: 6.8812(2) alpha: 90. beta: 90. gamma: 120. volume: 523.38(2) crystal system: hexagonal
x	intensity
5	0
5.22	9.56942
5.44	8.15805
5.66	7.80729
5.88	14.1057
6.1	4.2536
6.32	11.6312
6.54	15.9537
6.76	14.2227
6.98	12.6598
7.2	14.2856
7.42	12.1177
7.64	18.3535
7.86	2.03673
8.08	4.63095
8.3	7.16873
8.52	1.58059
8.74	18.0907
8.96	16.4583
9.18	9.64238
9.4	6.28393
9.62	0.633897
9.84	5.28159
10.06	0.268095
10.28	0.795665
10.5	3.22664
10.72	8.17174
10.94	50.2373
11.16	7.18761
11.38	8.552
11.6	0.606852
11.82	3.86738
12.04	4.23736
12.26	7.71388
12.48	3.11983
12.7	1.39038
12.92	12.6358
13.14	0.89321
13.36	8.13024
13.58	5.15476
13.8	7.3118
14.02	11.2335
14.24	11.6268
14.46	5.50494
14.68	11.317
14.9	0.439155
15.12	3.41586
15.34	1.78525
15.56	1.13298
15.78	6.11353
16	5.05896
16.22	3.66432
16.44	5.51163
16.66	12.1722
16.88	6.35768
17.1	8.2257
17.32	6.1637
17.54	2.31736
17.76	9.56202
17.98	8.96457
18.2	1.04444
18.42	8.1601
18.64	4.54009
18.86	0.882505
19.08	1.11294
19.3	4.88216
19.52	4.04936
19.74	3.01586
19.96	11.1168
20.18	4.98444
20.4	5.60427
20.62	11.5665
20.84	10.4865
21.06	7.44639
21.28	6.54133
21.5	5.52385
21.72	4.42509
21.94	41.2719
22.16	1.62918
22.38	1.15696
22.6	6.12721
22.82	5.28675
23.04	24.3071
23.26	10.5314
23.48	4.56721
23.7	3.40168
23.92	7.51677
24.14	1.85743
24.36	2.97273
24.58	1.86038
24.8	6.81423
25.02	1.22821
25.24	1.6141
25.46	12.6147
25.68	5.35609
25.9	83.0869
26.12	12.2098
26.34	2.16013
26.56	8.77986
26.78	26.9809
27	1.02095
27.22	7.02862
27.44	2.16333
27.66	4.24864
27.88	1.26767
28.1	11.2026
28.32	8.28465
28.54	4.13796
28.76	1.9681
28.98	8.03621
29.2	55.9102
29.42	7.00605
29.64	3.94596
29.86	1.71546
30.08	2.387
30.3	1.9019
30.52	3.94095
30.74	11.6803
30.96	8.18099
31.18	8.92114
31.4	8.35845
31.62	8.04245
31.84	26.5981
32.06	219.326
32.28	127.137
32.5	11.9391
32.72	4.88287
32.94	5.76935
33.16	244.914
33.38	2.32812
33.6	4.04502
33.82	3.8289
34.04	3.21078
34.26	38.7576
34.48	7.19629
34.7	4.53494
34.92	6.86923
35.14	2.74027
35.36	10.9907
35.58	5.13209
35.8	7.23181
36.02	6.0684
36.24	0.805688
36.46	7.88316
36.68	7.97443
36.9	4.25266
37.12	6.31518
37.34	0.506152
37.56	7.59985
37.78	7.66903
38	7.01163
38.22	1.838
38.44	1.60769
38.66	7.41041
38.88	3.09966
39.1	0.152078
39.32	14.4479
39.54	8.21646
39.76	3.91334
39.98	16.7866
40.2	49.8043
40.42	6.78364
40.64	6.05307
40.86	8.23401
41.08	4.38336
41.3	5.60839
41.52	4.83016
41.74	7.24836
41.96	0.277632
42.18	11.0127
42.4	16.2547
42.62	5.12531
42.84	7.72263
43.06	5.64241
43.28	2.6035
43.5	2.458
43.72	0.306378
43.94	22.3011
44.16	5.01697
44.38	2.73136
44.6	1.5608
44.82	8.35042
45.04	0.587639
45.26	2.71057
45.48	5.74177
45.7	4.71029
45.92	5.78928
46.14	4.08188
46.36	0.414176
46.58	3.37096
46.8	7.38846
47.02	40.3333
47.24	7.21199
47.46	9.84621
47.68	4.7654
47.9	6.42968
48.12	9.2944
48.34	61.9541
48.56	11.4513
48.78	4.42836
49	0.671215
49.22	2.09821
49.44	4.825
49.66	102.687
49.88	13.5897
50.1	7.59707
50.32	11.1369
50.54	8.14143
50.76	31.4519
50.98	35.8677
51.2	1.07772
51.42	0.609262
51.64	36.6095
51.86	1.88918
52.08	0.102772
52.3	34.3022
52.52	19.0544
52.74	3.17138
52.96	3.50478
53.18	5.52684
53.4	10.591
53.62	5.82257
53.84	3.02828
54.06	8.23134
54.28	6.41726
54.5	2.87309
54.72	2.05653
54.94	4.00685
55.16	3.06187
55.38	7.11471
55.6	1.89674
55.82	1.21471
56.04	7.36183
56.26	8.45608
56.48	10.3974
56.7	1.49488
56.92	2.36806
57.14	1.35894
57.36	18.3307
57.58	2.35575
57.8	0.676143
58.02	3.50994
58.24	3.29631
58.46	7.15223
58.68	13.2192
58.9	2.95461
59.12	4.84004
59.34	3.64282
59.56	2.53904
59.78	1.53976
60	71.452
60.22	9.70326
60.44	1.53419
60.66	3.44828
60.88	7.37783
61.1	3.40371
61.32	2.49745
61.54	4.0806
61.76	4.56536
61.98	16.6522
62.2	7.67115
62.42	2.39515
62.64	1.11341
62.86	3.99637
63.08	7.81461
63.3	42.6072
63.52	29.4941
63.74	6.40525
63.96	10.9949
64.18	30.5096
64.4	3.41279
64.62	14.4422
64.84	3.6623
65.06	4.06127
65.28	3.26249
65.5	9.49395
65.72	2.75424
65.94	0.02118
66.16	5.03521
66.38	2.36911
66.6	6.75996
66.82	8.94179
67.04	5.06353
67.26	0.961246
67.48	0.313471
67.7	3.57591
67.92	10.6714
68.14	10.6388
68.36	16.4955
68.58	6.42185
68.8	6.31274
69.02	7.16051
69.24	0.10336
69.46	6.14686
69.68	1.33859
69.9	4.53273
70.12	9.81649
70.34	5.82381
70.56	4.00183
70.78	4.05697
71	4.04441
71.22	7.06878
71.44	9.08942
71.66	10.0921
71.88	3.08251
72.1	15.2113
72.32	3.95007
72.54	8.92102
72.76	9.91396
72.98	4.83659
73.2	4.78307
73.42	4.71862
73.64	5.69717
73.86	2.68297
74.08	1.80099
74.3	8.63652
74.52	2.60198
74.74	2.57805
74.96	7.65768
75.18	1.60524
75.4	4.63953
75.62	5.57045
75.84	3.51105
76.06	8.48454
76.28	1.2806
76.5	1.93721
76.72	0.171167
76.94	3.04759
77.16	8.08013
77.38	8.79254
77.6	9.7284
77.82	1.70896
78.04	6.82188
78.26	3.06335
78.48	17.4368
78.7	22.6457
78.92	17.8755
79.14	7.07651
79.36	4.08671
79.58	1.20567
79.8	4.29516
80.02	4.3508
80.24	2.49223
80.46	6.55278
80.68	4.28423
80.9	1.09035
81.12	3.00895
81.34	4.06144
81.56	0.130136
81.78	0.956475
82	2.86839
82.22	9.99866
82.44	4.80023
82.66	2.7104
82.88	5.55487
83.1	0.468457
83.32	5.48789
83.54	4.43839
83.76	8.19098
83.98	6.22827
84.2	12.2162
84.42	6.04874
84.64	7.97205
84.86	11.9876
85.08	6.12054
85.3	4.24933
85.52	8.46859
85.74	0.623052
85.96	1.59267
86.18	0.965704
86.4	8.80035
86.62	2.65606
86.84	3.65185
87.06	3.64229
87.28	4.62879
87.5	14.7134
87.72	10.5824
87.94	3.61984
88.16	7.68578
88.38	0.55616
88.6	2.70413
88.82	1.93241
89.04	16.1798
89.26	3.55916
89.48	3.70573
89.7	1.33894
89.92	2.32656
