Measurement: Powder, Xray Data XY Processed
Mineral: Fluorapophyllite-(K)
Rruff sample: R050084
Ideal chemistry: KCa_4_Si_8_O_20_F8H_2_O
Locality: near Ahmednagar, Maharashtra, India
Source: Rock Currier
Description: Greenish-white prismatic single crystal associated with scolecite
Diffraction sample description: Powder
Measured chemistry: (K_0.98_Na_0.02_)Ca_4.00_Si_8.00_O_20_F_1.00_Â·8H_2_O
Cell parameters: a: 8.9724(7) b: 8.9724(7) c: 15.7979(5) alpha: 90. beta: 90. gamma: 90. volume: 1271.8(2) crystal system: tetragonal
x	intensity
5	0
5.22	13.903
5.44	7.369
5.66	2.446
5.88	2.294
6.1	1.015
6.32	6.717
6.54	6.049
6.76	20.707
6.98	7.922
7.2	3.035
7.42	8.134
7.64	3.544
7.86	11.991
8.08	10.442
8.3	4.949
8.52	3.304
8.74	11.099
8.96	5.322
9.18	9.508
9.4	1.712
9.62	6.087
9.84	11.386
10.06	3.277
10.28	4.025
10.5	2.68
10.72	5.13
10.94	0.935
11.16	6.632
11.38	68.308
11.6	16.919
11.82	0.498
12.04	7.206
12.26	0.937
12.48	6.066
12.7	6.24
12.92	7.453
13.14	2.766
13.36	7.047
13.58	11.477
13.8	4.783
14.02	13.102
14.24	1.431
14.46	9.534
14.68	5.623
14.9	0.745
15.12	6.041
15.34	6.352
15.56	2.669
15.78	5.813
16	1.991
16.22	6.207
16.44	4.604
16.66	5.791
16.88	1.874
17.1	0.982
17.32	4.292
17.54	3.333
17.76	12.089
17.98	6.908
18.2	6.867
18.42	6.665
18.64	1.497
18.86	3.034
19.08	4.914
19.3	4.874
19.52	11.916
19.74	22.723
19.96	19.723
20.18	0.914
20.4	20.881
20.62	3.267
20.84	5.285
21.06	4.304
21.28	5.286
21.5	0.195
21.72	3.188
21.94	4.005
22.16	7.93
22.38	10.701
22.6	768.792
22.82	22.903
23.04	16.611
23.26	9.16
23.48	3.28
23.7	1.574
23.92	1.527
24.14	3.604
24.36	6.834
24.58	11.947
24.8	10.997
25.02	94.772
25.24	2.645
25.46	3.647
25.68	7.132
25.9	7.099
26.12	3.121
26.34	1.255
26.56	7.624
26.78	15.659
27	1.492
27.22	6.464
27.44	1.312
27.66	1.575
27.88	1.797
28.1	13.589
28.32	10.387
28.54	5.055
28.76	0.631
28.98	1.952
29.2	2.501
29.42	3.238
29.64	4.01
29.86	12.715
30.08	838.611
30.3	20.802
30.52	30.929
30.74	11.057
30.96	3.344
31.18	7.726
31.4	8.009
31.62	10.253
31.84	55.807
32.06	15.155
32.28	0.801
32.5	4.398
32.72	3.162
32.94	5.441
33.16	0.817
33.38	6.976
33.6	30.002
33.82	3.136
34.04	2.17
34.26	1.95
34.48	0.298
34.7	0.159
34.92	0.007
35.14	1.755
35.36	0.46
35.58	0.028
35.8	1.698
36.02	120.46
36.24	166.637
36.46	20.855
36.68	0.512
36.9	4.367
37.12	65.693
37.34	0.199
37.56	0.546
37.78	4.874
38	6.119
38.22	7.446
38.44	0.164
38.66	7.238
38.88	5.351
39.1	2.384
39.32	6.386
39.54	2.142
39.76	0.054
39.98	1.638
40.2	4.312
40.42	4.042
40.64	4.764
40.86	7.18
41.08	82.947
41.3	69.689
41.52	2.757
41.74	8.655
41.96	16.635
42.18	1.656
42.4	5.803
42.62	4.099
42.84	28.502
43.06	52.104
43.28	11.38
43.5	1.223
43.72	4.196
43.94	5.099
44.16	6.12
44.38	8.068
44.6	4.997
44.82	7.007
45.04	5.941
45.26	28.864
45.48	6.598
45.7	5.548
45.92	6.921
46.14	3.003
46.36	0.767
46.58	5.333
46.8	4.569
47.02	4.771
47.24	3.782
47.46	0.653
47.68	3.652
47.9	10.628
48.12	0.609
48.34	1.427
48.56	3.561
48.78	4.494
49	4.573
49.22	3.565
49.44	3.543
49.66	5.471
49.88	3.302
50.1	4.153
50.32	3.885
50.54	2.31
50.76	4.457
50.98	4.175
51.2	7.938
51.42	11.937
51.64	72.999
51.86	30.105
52.08	5.167
52.3	7.321
52.52	0.533
52.74	0.018
52.96	0.276
53.18	40.439
53.4	16.915
53.62	4.123
53.84	1.131
54.06	2.921
54.28	8.847
54.5	1.892
54.72	5.859
54.94	15.16
55.16	4.154
55.38	7.133
55.6	6.044
55.82	8.612
56.04	3.673
56.26	2.523
56.48	9.227
56.7	0.973
56.92	2.769
57.14	5.613
57.36	14.082
57.58	1.523
57.8	5.419
58.02	5.738
58.24	13.079
58.46	148.912
58.68	20.079
58.9	3.325
59.12	4.578
59.34	1.782
59.56	6.08
59.78	18.751
60	35.074
60.22	6.261
60.44	20.057
60.66	3.111
60.88	0.068
61.1	1.926
61.32	3.741
61.54	2.59
61.76	2.58
61.98	5.088
62.2	17.371
62.42	19.243
62.64	2.067
62.86	4.061
63.08	12.912
63.3	11.266
63.52	4.893
63.74	11.564
63.96	7.833
64.18	5.183
64.4	4.526
64.62	4.826
64.84	1.039
65.06	3.051
65.28	7.152
65.5	2.149
65.72	2.835
65.94	14.468
66.16	9.187
66.38	0.78
66.6	4.098
66.82	0.063
67.04	3.218
67.26	4.215
67.48	4.273
67.7	5.299
67.92	1.321
68.14	2.451
68.36	4.399
68.58	3.308
68.8	3.257
69.02	3.438
69.24	5.377
69.46	11.181
69.68	14.411
69.9	4.366
70.12	1.733
70.34	0.297
70.56	7.245
70.78	4.316
71	7.439
71.22	5.713
71.44	12.846
71.66	47.062
71.88	26.082
72.1	4.882
72.32	8.857
72.54	3.821
72.76	4.688
72.98	3.525
73.2	2.426
73.42	5.233
73.64	2.85
73.86	3.453
74.08	6.309
74.3	8.51
74.52	8.685
74.74	7.653
74.96	7.553
75.18	4.571
75.4	1.409
75.62	1.477
75.84	4.48
76.06	37.486
76.28	10.581
76.5	3.499
76.72	5.193
76.94	11.264
77.16	1.594
77.38	4.902
77.6	4.136
77.82	3.375
78.04	6.814
78.26	2.049
78.48	0.71
78.7	3.3
78.92	3.335
79.14	1.295
79.36	4.074
79.58	1.705
79.8	4.523
80.02	3.554
80.24	2.321
80.46	29.149
80.68	20.156
80.9	3.194
81.12	8.385
81.34	3.587
81.56	3.686
81.78	4.809
82	1.993
82.22	2.09
82.44	4.009
82.66	6.198
82.88	1.243
83.1	1.17
83.32	6.961
83.54	1.805
83.76	0.741
83.98	3.862
84.2	10.896
84.42	1.954
84.64	1.004
84.86	6.188
85.08	4.011
85.3	0.053
85.52	0.906
85.74	3.752
85.96	0.578
86.18	4.389
86.4	3.064
86.62	4.849
86.84	3.545
87.06	8.316
87.28	158.293
87.5	24.396
87.72	9.449
87.94	7.485
88.16	3.655
88.38	0.842
88.6	1.151
88.82	5.452
89.04	6.776
89.26	3.954
89.48	8.006
89.7	4.432
89.92	3.828
