Measurement: Powder, Xray Data XY Processed
Mineral: Fluorite
Rruff sample: R050045
Ideal chemistry: CaF_2_
Locality: Hunan Province, China
Source: Eugene Schlepp
Description: Pale green colored cubes
Diffraction sample description: Powder
Measured chemistry: Ca_1.000_ F_2.000_
Cell parameters: a: 5.46445(6) b: 5.46445(6) c: 5.46445(6) alpha: 90. beta: 90. gamma: 90. volume: 163.170(5) crystal system: cubic
x	intensity
5	0
5.22	15.307
5.44	1.902
5.66	9.69
5.88	10.784
6.1	12.268
6.32	28.781
6.54	17.057
6.76	13.564
6.98	2.313
7.2	2.149
7.42	0.637
7.64	6.201
7.86	0.851
8.08	6.455
8.3	8.67
8.52	2.565
8.74	2.426
8.96	5.17
9.18	3.888
9.4	8.268
9.62	7.984
9.84	12.435
10.06	7.109
10.28	11.832
10.5	14.708
10.72	13.852
10.94	8.142
11.16	0.624
11.38	9.836
11.6	9.165
11.82	4.499
12.04	2.913
12.26	10.285
12.48	4.762
12.7	5.889
12.92	2.934
13.14	1.078
13.36	4.075
13.58	0.237
13.8	0.851
14.02	10.162
14.24	1.237
14.46	1.184
14.68	4.193
14.9	1.002
15.12	0.999
15.34	10.173
15.56	2.307
15.78	3.365
16	3.404
16.22	0.45
16.44	7.562
16.66	0.603
16.88	7.762
17.1	6.924
17.32	3.08
17.54	0.057
17.76	6.899
17.98	0.138
18.2	3.899
18.42	1.911
18.64	0.969
18.86	7.072
19.08	3.138
19.3	9.213
19.52	7.19
19.74	0.21
19.96	6.393
20.18	0.446
20.4	6.708
20.62	6.711
20.84	6.867
21.06	8.917
21.28	2.914
21.5	3.934
21.72	0.928
21.94	3.88
22.16	5.892
22.38	0.043
22.6	6.823
22.82	3.959
23.04	5.998
23.26	1.064
23.48	1.947
23.7	4.034
23.92	7.108
24.14	4.1
24.36	0.093
24.58	4.069
24.8	1.969
25.02	0.96
25.24	4.912
25.46	5.143
25.68	9.96
25.9	6.038
26.12	2.161
26.34	0.123
26.56	0.516
26.78	3.085
27	3.663
27.22	6.167
27.44	5.686
27.66	5.14
27.88	5.363
28.1	34.147
28.32	762.781
28.54	81.548
28.76	24.818
28.98	3.244
29.2	1.842
29.42	4.192
29.64	1.647
29.86	0.105
30.08	6.571
30.3	1.141
30.52	2.415
30.74	5.709
30.96	3.947
31.18	0.951
31.4	4.907
31.62	1.804
31.84	1.038
32.06	2.044
32.28	6.243
32.5	0.471
32.72	1.375
32.94	0.468
33.16	2.534
33.38	0.563
33.6	8.635
33.82	1.655
34.04	1.656
34.26	0.31
34.48	4.689
34.7	2.593
34.92	7.448
35.14	0.564
35.36	0.543
35.58	2.594
35.8	5.575
36.02	2.583
36.24	3.647
36.46	2.679
36.68	0.631
36.9	2.722
37.12	3.701
37.34	0.734
37.56	0.623
37.78	2.621
38	0.517
38.22	1.641
38.44	0.61
38.66	3.611
38.88	9.614
39.1	2.633
39.32	4.548
39.54	5.605
39.76	5.597
39.98	2.756
40.2	3.792
40.42	5.936
40.64	2.812
40.86	3.845
41.08	2.776
41.3	4.742
41.52	3.722
41.74	5.686
41.96	2.69
42.18	6.742
42.4	8.657
42.62	6.723
42.84	3.588
43.06	3.673
43.28	0.428
43.5	3.524
43.72	2.674
43.94	3.744
44.16	3.858
44.38	2.539
44.6	0.048
44.82	4.865
45.04	1.261
45.26	2.715
45.48	2.91
45.7	1.203
45.92	2.497
46.14	0.596
46.36	0.729
46.58	21.039
46.8	56.696
47.02	418.561
47.24	192.317
47.46	37.591
47.68	5.354
47.9	6.851
48.12	2.413
48.34	6.987
48.56	3.74
48.78	2.321
49	1.02
49.22	1.378
49.44	3.799
49.66	3.044
49.88	6.174
50.1	4.312
50.32	5.445
50.54	5.69
50.76	1.884
50.98	2.01
51.2	5.211
51.42	4.153
51.64	2.301
51.86	3.475
52.08	6.469
52.3	0.652
52.52	2.408
52.74	2.522
52.96	2.411
53.18	2.497
53.4	2.333
53.62	6.264
53.84	4.256
54.06	3.115
54.28	5.819
54.5	0.361
54.72	0.477
54.94	3.28
55.16	5.039
55.38	8.876
55.6	21.755
55.82	245.926
56.04	50.941
56.26	18.092
56.48	5.222
56.7	2.51
56.92	4.748
57.14	2.037
57.36	2.263
57.58	3.469
57.8	2.738
58.02	2.845
58.24	1.875
58.46	7.042
58.68	0.989
58.9	6.997
59.12	0.067
59.34	3.15
59.56	6.211
59.78	4.279
60	4.286
60.22	5.349
60.44	5.418
60.66	0.686
60.88	2.281
61.1	4.367
61.32	2.333
61.54	1.379
61.76	3.377
61.98	4.36
62.2	2.442
62.42	0.444
62.64	2.48
62.86	0.468
63.08	1.477
63.3	0.493
63.52	6.485
63.74	4.584
63.96	5.671
64.18	2.619
64.4	3.719
64.62	3.729
64.84	5.699
65.06	3.668
65.28	1.677
65.5	1.598
65.72	0.588
65.94	1.543
66.16	5.468
66.38	4.273
66.6	3.139
66.82	2.973
67.04	2.831
67.26	2.732
67.48	4.559
67.7	4.401
67.92	2.325
68.14	2.203
68.36	7.188
68.58	15.156
68.8	26.32
69.02	10.452
69.24	9.474
69.46	1.566
69.68	6.832
69.9	1.003
70.12	1.115
70.34	4.258
70.56	4.345
70.78	2.267
71	1.314
71.22	0.304
71.44	1.278
71.66	3.284
71.88	0.379
72.1	2.328
72.32	4.345
72.54	1.403
72.76	1.36
72.98	1.48
73.2	3.517
73.42	2.473
73.64	2.39
73.86	1.275
74.08	2.104
74.3	4.92
74.52	1.618
74.74	0.44
74.96	1.216
75.18	3.057
75.4	5.804
75.62	8.688
75.84	39.689
76.06	30.6
76.28	8.745
76.5	0.78
76.72	1.859
76.94	4.069
77.16	2.197
77.38	0.345
77.6	2.487
77.82	1.602
78.04	4.672
78.26	11.73
78.48	0.889
78.7	0.049
78.92	3.023
79.14	1.186
79.36	1.202
79.58	2.306
79.8	4.39
80.02	2.514
80.24	5.619
80.46	3.712
80.68	5.72
80.9	2.678
81.12	2.635
81.34	0.659
81.56	4.613
81.78	1.566
82	3.518
82.22	1.484
82.44	1.461
82.66	4.465
82.88	1.501
83.1	3.54
83.32	1.542
83.54	7.489
83.76	4.493
83.98	3.474
84.2	3.423
84.42	1.414
84.64	0.304
84.86	3.333
85.08	2.264
85.3	2.008
85.52	3.772
85.74	0.462
85.96	0.81
86.18	1.84
86.4	6.476
86.62	1.229
86.84	9.934
87.06	11.727
87.28	22.604
87.5	55.471
87.72	76.86
87.94	11.033
88.16	2.367
88.38	0.276
88.6	2.141
88.82	3.503
89.04	2.071
89.26	3.517
89.48	0.656
89.7	0.241
89.92	3.307
