Measurement: Powder, Xray Data XY Processed
Mineral: Fluorcalciopyrochlore
Rruff sample: R061003
Ideal chemistry: (Ca,Na)_2_(Nb^5+^,Ti^4+^)_2_O_6_F
Locality: Verity property, Blue River, British Columbia, Canada
Source: Michael Scott
Description: Reddish-brown octahedron
Diffraction sample description: Powder
Measured chemistry: (Ca_1.03_Na_0.88_Sr_0.03_Ce_0.01_)_Σ1.95_(Nb_1.87_Ti_0.09_Ta_0.04_)_Σ2_O_6_[F_0.93_(OH)_0.01_]_Σ0.94_
Cell parameters: a: 10.42405(8) b: 10.42405(8) c: 10.42405(8) alpha: 90 beta: 90 gamma: 90 volume: 1132.68(3) crystal system: cubic
x	intensity
5	0
5.22	12.4992
5.44	8.43724
5.66	10.1013
5.88	5.99473
6.1	1.97372
6.32	22.2742
6.54	15.3823
6.76	4.57822
6.98	1.69311
7.2	6.85161
7.42	6.12706
7.64	14.3698
7.86	4.61212
8.08	3.8852
8.3	4.19922
8.52	4.2178
8.74	7.14578
8.96	1.78901
9.18	1.53707
9.4	1.65874
9.62	4.10329
9.84	6.90261
10.06	3.89746
10.28	1.79566
10.5	2.6744
10.72	0.412803
10.94	1.59937
11.16	4.68579
11.38	10.8281
11.6	8.09727
11.82	1.26964
12.04	0.362749
12.26	1.38478
12.48	6.38805
12.7	3.32397
12.92	0.826817
13.14	5.5474
13.36	11.3031
13.58	7.06281
13.8	0.01011
14.02	0.303202
14.24	7.71666
14.46	7.76708
14.68	51.7229
14.9	20.7635
15.12	7.74218
15.34	0.948473
15.56	5.61455
15.78	3.65497
16	0.75842
16.22	5.86784
16.44	3.83957
16.66	1.97019
16.88	2.90395
17.1	4.04393
17.32	5.08228
17.54	3.26064
17.76	3.26348
17.98	4.24818
18.2	6.24227
18.42	4.43073
18.64	1.48559
18.86	0.562645
19.08	1.43728
19.3	4.44577
19.52	5.42593
19.74	5.68508
19.96	0.658659
20.18	5.54812
20.4	1.59983
20.62	8.73076
20.84	6.67254
21.06	10.6383
21.28	4.69877
21.5	3.70968
21.72	1.65515
21.94	1.79832
22.16	8.505
22.38	7.62193
22.6	5.70324
22.82	5.61077
23.04	6.47902
23.26	6.42262
23.48	2.30406
23.7	0.650944
23.92	7.3064
24.14	5.25566
24.36	8.19248
24.58	1.2012
24.8	2.18231
25.02	2.34172
25.24	4.37826
25.46	6.46307
25.68	2.562
25.9	1.5124
26.12	1.23574
26.34	2.72883
26.56	3.90481
26.78	12.6279
27	10.7021
27.22	7.28202
27.44	0.269942
27.66	2.34736
27.88	2.06209
28.1	1.56826
28.32	10.0011
28.54	58.4278
28.76	13.0544
28.98	9.48875
29.2	4.23415
29.42	4.96389
29.64	57.2963
29.86	82.3817
30.08	7.65236
30.3	5.87585
30.52	1.66049
30.74	5.0011
30.96	7.34634
31.18	5.82138
31.4	5.32033
31.62	5.66842
31.84	0.653168
32.06	4.75817
32.28	0.963451
32.5	5.21467
32.72	1.30801
32.94	1.37133
33.16	3.20251
33.38	6.2921
33.6	1.25036
33.82	4.19124
34.04	3.38066
34.26	7.39817
34.48	71.5298
34.7	7.54242
34.92	3.48462
35.14	1.44273
35.36	4.40297
35.58	2.40417
35.8	7.39034
36.02	0.591443
36.24	1.40227
36.46	0.309922
36.68	0.317921
36.9	3.24861
37.12	2.27969
37.34	5.41831
37.56	6.51889
37.78	6.56512
38	7.72916
38.22	6.06792
38.44	8.1486
38.66	7.24819
38.88	1.27643
39.1	6.32903
39.32	0.425432
39.54	7.5761
39.76	1.37988
39.98	0.478063
40.2	0.499022
40.42	0.396084
40.64	2.209
40.86	4.34271
41.08	7.33956
41.3	3.57159
41.52	2.56319
41.74	4.46218
41.96	8.63713
42.18	5.52961
42.4	0.399893
42.62	13.3963
42.84	1.30513
43.06	2.25808
43.28	0.052305
43.5	10.829
43.72	2.74475
43.94	5.63926
44.16	2.44586
44.38	7.20441
44.6	6.30531
44.82	4.28912
45.04	5.3043
45.26	34.5615
45.48	7.58525
45.7	0.741197
45.92	2.00144
46.14	5.9203
46.36	0.032234
46.58	4.97589
46.8	1.06333
47.02	0.018367
47.24	1.81529
47.46	2.83742
47.68	1.54228
47.9	0.624622
48.12	2.95327
48.34	4.53919
48.56	4.30003
48.78	10.0758
49	1.9455
49.22	6.81198
49.44	153.659
49.66	90.7959
49.88	6.56861
50.1	1.58778
50.32	0.042739
50.54	0.180567
50.76	3.40311
50.98	2.56785
51.2	1.85568
51.42	0.982576
51.64	1.15301
51.86	13.5236
52.08	18.4681
52.3	1.38115
52.52	3.85901
52.74	1.70198
52.96	7.78153
53.18	3.97084
53.4	4.11534
53.62	0.106055
53.84	5.30201
54.06	5.51221
54.28	8.36778
54.5	4.46631
54.72	10.4235
54.94	4.33379
55.16	3.32877
55.38	4.51202
55.6	4.42068
55.82	10.36
56.04	4.46464
56.26	7.33883
56.48	6.87117
56.7	2.61356
56.92	0.284908
57.14	2.94952
57.36	5.64866
57.58	4.12031
57.8	3.82593
58.02	52.6248
58.24	6.45949
58.46	7.48964
58.68	33.472
58.9	108.724
59.12	8.88423
59.34	7.12826
59.56	4.35678
59.78	1.83415
60	2.18366
60.22	8.44344
60.44	3.64987
60.66	3.80481
60.88	3.71292
61.1	2.69504
61.32	5.81689
61.54	7.88339
61.76	20.0363
61.98	5.04382
62.2	7.05703
62.42	2.01144
62.64	2.00394
62.86	0.011889
63.08	1.00482
63.3	4.91666
63.52	9.00418
63.74	34.9281
63.96	30.9911
64.18	1.91943
64.4	1.91339
64.62	3.11742
64.84	3.14364
65.06	6.23866
65.28	4.4527
65.5	0.693267
65.72	3.76497
65.94	0.660985
66.16	4.64831
66.38	7.73003
66.6	1.73171
66.82	1.6542
67.04	2.48194
67.26	0.576841
67.48	0.442805
67.7	6.47142
67.92	0.316613
68.14	2.26872
68.36	4.19799
68.58	2.15189
68.8	5.26413
69.02	7.20226
69.24	60.1329
69.46	14.0709
69.68	11.9692
69.9	5.996
70.12	2.00887
70.34	4.95148
70.56	3.95546
70.78	1.02982
71	2.16445
71.22	0.97534
71.44	0.036587
71.66	6.97654
71.88	2.00701
72.1	4.01547
72.32	1.08497
72.54	43.9214
72.76	16.1168
72.98	1.33673
73.2	2.44057
73.42	10.3798
73.64	4.47672
73.86	0.563339
74.08	4.63893
74.3	1.71591
74.52	3.74543
74.74	6.84728
74.96	4.87731
75.18	1.7154
75.4	2.66363
75.62	1.55355
75.84	1.46429
76.06	0.400505
76.28	7.47416
76.5	3.41465
76.72	7.33756
76.94	1.2309
77.16	1.20009
77.38	0.28546
77.6	2.45155
77.82	3.51912
78.04	8.50978
78.26	4.50134
78.48	0.383009
78.7	1.22597
78.92	3.11071
79.14	4.97383
79.36	2.78802
79.58	8.68665
79.8	6.43203
80.02	3.26873
80.24	67.1416
80.46	26.1614
80.68	4.15149
80.9	0.766455
81.12	2.48559
81.34	1.62208
81.56	5.7825
81.78	3.86189
82	1.90837
82.22	3.77017
82.44	6.96839
82.66	7.82229
82.88	18.8972
83.1	28.9743
83.32	7.99313
83.54	0.962319
83.76	2.91832
83.98	3.94073
84.2	0.673611
84.42	3.36635
84.64	4.3755
84.86	7.25265
85.08	0.735409
85.3	3.3173
85.52	6.32367
85.74	5.18719
85.96	5.15017
86.18	0.115759
86.4	6.91951
86.62	1.2875
86.84	4.78712
87.06	6.81307
87.28	5.04472
87.5	3.05434
87.72	4.98175
87.94	5.99113
88.16	7.03456
88.38	4.18832
88.6	5.27543
88.82	3.41034
89.04	4.552
89.26	2.46308
89.48	4.77209
89.7	14.7444
89.92	12.576
