Measurement: Powder, Xray Data XY Processed
Mineral: Fluor-uvite
Rruff sample: R050301
Ideal chemistry: CaMg_3_(Al_5_Mg)(Si_6_O_18_)(BO_3_)_3_(OH)_3_F
Locality: Brumado, Bahia, Brazil
Source: Eugene Schlepp
Description: Short prismatic green crystals
Diffraction sample description: Powder
Measured chemistry: (Ca_0.68_Na_0.22_[box]_0.10_)(Mg_0.77_Al_0.16_Ti_0.03_[box]_0.04_)_3_(Mg_1.00_Al_5.00_)(BO_3_)_3_Si_6.00_O_18_((OH)_3_F)
Cell parameters: a: 15.9567(3) b: 15.9567(3) c: 7.2126(3) alpha: 90 beta: 90 gamma: 120 volume: 1590.40(6) crystal system: hexagonal
x	intensity
5	0
5.22	2.55057
5.44	3.20444
5.66	6.74445
5.88	4.49562
6.1	3.97253
6.32	4.13615
6.54	16.8185
6.76	6.8056
6.98	17.2685
7.2	2.96999
7.42	9.58663
7.64	6.01079
7.86	9.44837
8.08	10.5542
8.3	2.09552
8.52	7.33176
8.74	7.06417
8.96	0.325609
9.18	0.416087
9.4	11.0566
9.62	3.8133
9.84	8.04987
10.06	10.223
10.28	0.38765
10.5	9.1228
10.72	3.47628
10.94	1.62467
11.16	1.78879
11.38	7.93654
11.6	5.8305
11.82	8.45889
12.04	4.76839
12.26	0.893537
12.48	0.969091
12.7	0.727817
12.92	10.303
13.14	4.37145
13.36	4.18867
13.58	0.133404
13.8	18.246
14.02	9.2501
14.24	6.08164
14.46	5.28041
14.68	5.20602
14.9	4.393
15.12	6.56129
15.34	1.84827
15.56	7.80714
15.78	5.0804
16	10.479
16.22	2.33812
16.44	1.51985
16.66	2.36758
16.88	1.43277
17.1	2.44383
17.32	9.4831
17.54	0.590364
17.76	111.615
17.98	12.5282
18.2	2.39865
18.42	0.146667
18.64	5.16832
18.86	1.47515
19.08	4.64896
19.3	266.8
19.52	7.91388
19.74	9.33226
19.96	2.2001
20.18	7.9538
20.4	8.78259
20.62	3.73457
20.84	20.7024
21.06	296.513
21.28	6.90183
21.5	0.562684
21.72	6.37271
21.94	9.16428
22.16	12.6005
22.38	213.709
22.6	12.1048
22.82	9.26046
23.04	9.4319
23.26	2.57213
23.48	1.78734
23.7	2.50981
23.92	5.44131
24.14	1.64169
24.36	4.00156
24.58	9.69869
24.8	5.49439
25.02	8.21095
25.24	7.00693
25.46	58.6703
25.68	37.5536
25.9	6.71324
26.12	2.17966
26.34	90.4922
26.56	8.03395
26.78	4.33685
27	2.52083
27.22	5.79949
27.44	4.83919
27.66	4.88407
27.88	9.08095
28.1	5.11714
28.32	4.64235
28.54	6.29444
28.76	5.70246
28.98	1.08604
29.2	6.39928
29.42	9.04607
29.64	105.525
29.86	13.3239
30.08	267.572
30.3	30.5197
30.52	7.43547
30.74	16.8459
30.96	14.3809
31.18	3.21496
31.4	2.19956
31.62	3.66108
31.84	4.15854
32.06	3.79283
32.28	8.65808
32.5	8.49878
32.72	5.40457
32.94	0.199079
33.16	3.92804
33.38	3.56079
33.6	2.33179
33.82	8.0877
34.04	6.84653
34.26	25.523
34.48	11.4118
34.7	108.164
34.92	72.2265
35.14	22.6909
35.36	11.1646
35.58	0.426014
35.8	1.05493
36.02	15.4444
36.24	2.54473
36.46	5.53809
36.68	11.4814
36.9	4.0915
37.12	0.4971
37.34	17.2903
37.56	5.56771
37.78	70.4223
38	6.48459
38.22	4.13905
38.44	60.1816
38.66	8.68831
38.88	4.13016
39.1	23.5119
39.32	3.86006
39.54	1.19154
39.76	7.28201
39.98	2.16805
40.2	5.13363
40.42	1.94532
40.64	7.6577
40.86	6.03846
41.08	19.64
41.3	15.0909
41.52	3.61389
41.74	11.1446
41.96	5.34897
42.18	2.7953
42.4	71.6606
42.62	14.7407
42.84	28.726
43.06	5.79899
43.28	4.59026
43.5	4.46614
43.72	2.45199
43.94	60.9289
44.16	19.1202
44.38	66.6959
44.6	18.3096
44.82	44.6921
45.04	7.74351
45.26	4.78048
45.48	32.1256
45.7	3.48741
45.92	4.73374
46.14	3.94854
46.36	6.62782
46.58	1.54015
46.8	1.48236
47.02	14.9558
47.24	70.7795
47.46	26.4181
47.68	4.63152
47.9	12.8171
48.12	5.63446
48.34	6.57932
48.56	8.83619
48.78	5.87263
49	1.94853
49.22	32.9815
49.44	8.78701
49.66	7.04441
49.88	5.39222
50.1	8.30977
50.32	2.26952
50.54	5.58467
50.76	2.98553
50.98	6.12096
51.2	33.457
51.42	7.62153
51.64	8.64448
51.86	9.74445
52.08	2.69908
52.3	5.66622
52.52	11.7133
52.74	14.0294
52.96	4.14419
53.18	6.83882
53.4	4.12694
53.62	11.0177
53.84	1.28908
54.06	8.22198
54.28	8.13172
54.5	7.01416
54.72	6.12471
54.94	9.861
55.16	23.6957
55.38	27.4694
55.6	8.56302
55.82	7.50009
56.04	18.3967
56.26	6.35596
56.48	10.3109
56.7	10.304
56.92	10.2409
57.14	5.19158
57.36	7.11473
57.58	20.3419
57.8	38.4141
58.02	19.0737
58.24	9.7929
58.46	5.7016
58.68	2.44599
58.9	22.0566
59.12	3.90815
59.34	5.79684
59.56	4.5074
59.78	16.5146
60	5.96654
60.22	12.9675
60.44	8.96077
60.66	17.9904
60.88	0.533736
61.1	8.7549
61.32	38.5158
61.54	39.7026
61.76	4.92719
61.98	3.7292
62.2	11.6264
62.42	4.6648
62.64	10.753
62.86	5.80432
63.08	7.81795
63.3	6.15311
63.52	4.4169
63.74	104.402
63.96	68.2429
64.18	25.1084
64.4	6.1396
64.62	0.265137
64.84	3.59105
65.06	23.5031
65.28	7.45947
65.5	5.51557
65.72	24.5637
65.94	7.6047
66.16	36.5521
66.38	11.7368
66.6	6.33669
66.82	3.38763
67.04	3.64119
67.26	3.88367
67.48	6.25189
67.7	0.209045
67.92	4.13522
68.14	5.98522
68.36	3.90334
68.58	1.72341
68.8	10.9264
69.02	3.52121
69.24	12.5606
69.46	12.514
69.68	0.407464
69.9	10.1325
70.12	0.223085
70.34	1.57696
70.56	8.96524
70.78	25.9171
71	22.674
71.22	1.72706
71.44	0.916759
71.66	9.91711
71.88	19.0379
72.1	11.3613
72.32	9.5987
72.54	3.61872
72.76	0.685296
72.98	3.18143
73.2	5.21507
73.42	9.32685
73.64	3.66301
73.86	7.55087
74.08	42.3526
74.3	21.2615
74.52	5.23829
74.74	0.402127
74.96	3.48369
75.18	20.4961
75.4	13.7276
75.62	4.99662
75.84	6.86959
76.06	7.56283
76.28	6.50785
76.5	3.59932
76.72	5.51506
76.94	1.29271
77.16	4.94221
77.38	3.82346
77.6	6.77807
77.82	2.64366
78.04	8.69207
78.26	0.902783
78.48	3.92839
78.7	10.986
78.92	3.00459
79.14	3.29848
79.36	4.58047
79.58	5.79462
79.8	6.13325
80.02	0.640856
80.24	5.62331
80.46	1.8165
80.68	8.90512
80.9	12.197
81.12	4.54284
81.34	9.67106
81.56	8.91433
81.78	0.036899
82	3.97002
82.22	0.050747
82.44	6.63002
82.66	1.7337
82.88	7.53887
83.1	1.36053
83.32	4.02234
83.54	14.153
83.76	5.16808
83.98	11.9657
84.2	12.7527
84.42	6.69018
84.64	1.81289
84.86	5.98368
85.08	12.8266
85.3	7.8605
85.52	3.92123
85.74	7.08778
85.96	7.11579
86.18	19.14
86.4	4.11771
86.62	6.32728
86.84	8.45669
87.06	4.53238
87.28	6.60511
87.5	0.931633
87.72	7.09674
87.94	3.32097
88.16	10.2185
88.38	6.99714
88.6	0.177586
88.82	7.69008
89.04	3.66404
89.26	17.3773
89.48	8.78373
89.7	3.24835
89.92	0.690993
