Measurement: Powder, Xray Data XY Processed
Mineral: Fluorite
Rruff sample: R060548
Ideal chemistry: CaF_2_
Locality: unknown
Source: Gemological Institute of America
Description: Pale blue fragment
Diffraction sample description: Powder
Measured chemistry: Ca_1.00_F_2.00_
Cell parameters: a: 5.46457(9) b: 5.46457(9) c: 5.46457(9) alpha: 90. beta: 90. gamma: 90. volume: 163.181(8) crystal system: cubic
x	intensity
5	0
5.22	3.33464
5.44	0.197817
5.66	9.8306
5.88	7.6692
6.1	19.2412
6.32	24.2362
6.54	21.1566
6.76	6.4504
6.98	0.666279
7.2	2.77767
7.42	5.516
7.64	0.77417
7.86	4.88094
8.08	1.18836
8.3	5.8865
8.52	2.68617
8.74	1.50841
8.96	1.31976
9.18	6.99498
9.4	7.66329
9.62	8.33197
9.84	5.99069
10.06	10.135
10.28	12.2768
10.5	8.25038
10.72	3.56374
10.94	7.66447
11.16	0.967677
11.38	3.2616
11.6	5.49979
11.82	4.76781
12.04	3.06858
12.26	0.341632
12.48	4.47406
12.7	5.50941
12.92	2.54773
13.14	5.71723
13.36	0.192374
13.58	0.097597
13.8	3.29929
14.02	3.50605
14.24	2.64013
14.46	3.64195
14.68	3.68824
14.9	2.61185
15.12	4.59631
15.34	2.51222
15.56	2.4799
15.78	4.34497
16	2.246
16.22	1.05805
16.44	3.05288
16.66	0.988417
16.88	0.959673
17.1	5.90539
17.32	0.914276
17.54	1.90821
17.76	0.265683
17.98	2.16707
18.2	6.28202
18.42	0.39
18.64	4.56692
18.86	1.45564
19.08	5.50724
19.3	2.57312
19.52	4.73484
19.74	0.247416
19.96	0.739949
20.18	1.68815
20.4	1.84934
20.62	6.81007
20.84	0.857837
21.06	2.85509
21.28	6.89315
21.5	5.00295
21.72	1.02615
21.94	3.99359
22.16	4.00479
22.38	2.92201
22.6	2.82873
22.82	7.75499
23.04	3.81742
23.26	0.259416
23.48	6.72464
23.7	2.68232
23.92	3.58076
24.14	2.55979
24.36	3.47724
24.58	6.48637
24.8	1.5127
25.02	0.698644
25.24	2.80391
25.46	8.08644
25.68	3.05959
25.9	2.16291
26.12	2.16116
26.34	4.06243
26.56	1.18058
26.78	4.5147
27	3.17586
27.22	0.193196
27.44	5.1478
27.66	1.67191
27.88	13.1079
28.1	38.8576
28.32	701.702
28.54	58.5277
28.76	13.6077
28.98	1.01369
29.2	5.38299
29.42	2.64833
29.64	4.98889
29.86	2.4997
30.08	0.851929
30.3	1.80533
30.52	3.39266
30.74	4.43546
30.96	6.63008
31.18	3.73429
31.4	5.6318
31.62	4.62696
31.84	1.68229
32.06	3.61852
32.28	1.63277
32.5	2.67129
32.72	2.7538
32.94	6.82438
33.16	3.97103
33.38	2.04243
33.6	3.01239
33.82	3.06107
34.04	5.25863
34.26	6.31127
34.48	2.3266
34.7	0.371201
34.92	3.35674
35.14	3.36785
35.36	5.36857
35.58	6.41603
35.8	1.51183
36.02	1.49109
36.24	0.288339
36.46	2.17572
36.68	3.14828
36.9	1.06988
37.12	1.0907
37.34	6.05245
37.56	1.04954
37.78	3.00159
38	2.95904
38.22	3.96418
38.44	0.984371
38.66	6.09971
38.88	3.21323
39.1	1.33319
39.32	4.35677
39.54	1.3113
39.76	1.32222
39.98	0.326876
40.2	5.3678
40.42	2.30075
40.64	4.23704
40.86	2.31997
41.08	1.2111
41.3	3.20328
41.52	2.19186
41.74	1.22918
41.96	1.26595
42.18	3.20336
42.4	7.2044
42.62	2.16744
42.84	2.17995
43.06	2.15241
43.28	2.16716
43.5	2.25612
43.72	3.28327
43.94	5.35109
44.16	1.26096
44.38	3.13711
44.6	0.06288
44.82	5.74992
45.04	6.53637
45.26	0.129039
45.48	5.59128
45.7	0.046706
45.92	1.43834
46.14	3.74889
46.36	2.21946
46.58	11.7895
46.8	43.442
47.02	489.565
47.24	99.8935
47.46	26.973
47.68	2.2586
47.9	0.367452
48.12	3.05325
48.34	3.6315
48.56	1.20519
48.78	0.750628
49	3.15782
49.22	4.60986
49.44	2.67658
49.66	4.6596
49.88	0.83064
50.1	5.03502
50.32	5.1428
50.54	4.09994
50.76	3.23651
50.98	6.1626
51.2	0.90065
51.42	6.10393
51.64	2.01594
51.86	1.07418
52.08	4.13706
52.3	3.15049
52.52	1.05023
52.74	0.099675
52.96	0.762122
53.18	1.08548
53.4	0.919342
53.62	2.97
53.84	0.950932
54.06	5.76476
54.28	2.49701
54.5	2.20805
54.72	3.91501
54.94	0.617834
55.16	4.4438
55.38	1.16255
55.6	20.081
55.82	116.082
56.04	30.0236
56.26	9.22835
56.48	8.60218
56.7	2.88596
56.92	2.12582
57.14	2.46971
57.36	1.73117
57.58	1.958
57.8	0.218102
58.02	0.407131
58.24	1.53263
58.46	4.59969
58.68	3.46595
58.9	3.3574
59.12	3.34121
59.34	3.34136
59.56	3.35545
59.78	4.41859
60	0.576706
60.22	2.37582
60.44	1.41208
60.66	3.46145
60.88	3.43242
61.1	0.465204
61.32	0.43922
61.54	0.548401
61.76	1.48733
61.98	3.4589
62.2	2.4562
62.42	2.50594
62.64	1.56285
62.86	4.54083
63.08	2.59476
63.3	2.65003
63.52	1.68594
63.74	2.70034
63.96	1.6733
64.18	0.656986
64.4	1.71076
64.62	2.6905
64.84	1.64281
65.06	1.5702
65.28	0.723511
65.5	2.71505
65.72	5.68782
65.94	2.67686
66.16	0.635647
66.38	0.437935
66.6	2.55568
66.82	2.43159
67.04	1.33366
67.26	4.21757
67.48	1.11233
67.7	0.853314
67.92	0.317083
68.14	3.51945
68.36	1.43749
68.58	15.5082
68.8	19.5731
69.02	12.5042
69.24	0.605764
69.46	1.70414
69.68	3.84538
69.9	1.04405
70.12	1.2669
70.34	0.401344
70.56	1.52412
70.78	6.59951
71	0.407327
71.22	0.627106
71.44	3.6729
71.66	0.375729
71.88	3.57631
72.1	0.43775
72.32	1.48654
72.54	4.4112
72.76	3.4366
72.98	2.50481
73.2	0.50855
73.42	1.47047
73.64	4.49447
73.86	1.43393
74.08	3.39579
74.3	2.46838
74.52	0.382939
74.74	3.22643
74.96	3.177
75.18	3.06358
75.4	7.9119
75.62	6.92307
75.84	41.9776
76.06	30.918
76.28	7.03485
76.5	5.05539
76.72	6.01445
76.94	0.039878
77.16	0.062522
77.38	3.09372
77.6	2.16438
77.82	5.23582
78.04	1.12685
78.26	3.11053
78.48	0.192164
78.7	3.2116
78.92	4.33139
79.14	1.37441
79.36	1.47084
79.58	0.58764
79.8	0.67835
80.02	1.70219
80.24	4.75444
80.46	0.768483
80.68	2.82885
80.9	2.77798
81.12	4.79285
81.34	1.76415
81.56	2.75543
81.78	0.735909
82	1.71465
82.22	2.70554
82.44	3.69624
82.66	3.62482
82.88	3.6308
83.1	0.341307
83.32	1.66906
83.54	3.62186
83.76	0.596633
83.98	1.61836
84.2	0.641655
84.42	0.542829
84.64	1.47225
84.86	2.48256
85.08	0.450884
85.3	5.34564
85.52	2.15478
85.74	1.9025
85.96	2.71283
86.18	1.47331
86.4	4.13735
86.62	4.90136
86.84	1.75548
87.06	5.65853
87.28	27.5303
87.5	44.5598
87.72	30.557
87.94	6.74888
88.16	3.9463
88.38	1.26796
88.6	3.53611
88.82	0.821434
89.04	2.23751
89.26	2.47345
89.48	1.89158
89.7	1.97358
89.92	2.96466
