Measurement: Powder, Xray Data XY Processed
Mineral: Fluorapophyllite-(K)
Rruff sample: R060554
Ideal chemistry: KCa_4_Si_8_O_20_F8H_2_O
Locality: unknown
Source: Gemological Institute of America
Description: Colorless polished fragment
Diffraction sample description: Powder
Measured chemistry: (K_0.88_Na_0.12_)Ca_4.00_Si_8.00_O_20_F_1.00_Â·8H2O
Cell parameters: a: 8.9759(2) b: 8.9759(2) c: 15.7949(4) alpha: 90. beta: 90. gamma: 90. volume: 1272.55(7) crystal system: tetragonal
x	intensity
5	0
5.22	8.53438
5.44	7.93788
5.66	0.952623
5.88	7.58757
6.1	4.41346
6.32	12.7142
6.54	24.7155
6.76	20.3661
6.98	21.2539
7.2	5.12542
7.42	1.70177
7.64	5.55087
7.86	4.42787
8.08	9.43383
8.3	7.44171
8.52	13.0354
8.74	0.772267
8.96	10.5618
9.18	0.246165
9.4	3.66921
9.62	0.888196
9.84	1.49649
10.06	3.62846
10.28	10.5657
10.5	1.47805
10.72	2.27488
10.94	4.18401
11.16	12.1542
11.38	106.208
11.6	6.19646
11.82	5.07286
12.04	2.05887
12.26	4.00333
12.48	6.15974
12.7	3.26052
12.92	5.37587
13.14	7.52869
13.36	0.148078
13.58	3.99016
13.8	4.18864
14.02	8.30884
14.24	0.307993
14.46	6.83605
14.68	1.97042
14.9	4.05348
15.12	4.21872
15.34	2.37406
15.56	2.34819
15.78	8.52614
16	2.63761
16.22	6.513
16.44	1.62569
16.66	5.4491
16.88	3.49355
17.1	4.45358
17.32	0.463478
17.54	1.38377
17.76	10.3809
17.98	3.29087
18.2	4.13505
18.42	1.98456
18.64	2.87001
18.86	7.73104
19.08	4.73394
19.3	1.70477
19.52	13.7023
19.74	18.6777
19.96	5.71566
20.18	1.31774
20.4	10.6989
20.62	5.90827
20.84	1.02775
21.06	0.017754
21.28	0.147624
21.5	4.69531
21.72	0.577225
21.94	3.4672
22.16	7.38335
22.38	10.4005
22.6	565.548
22.82	12.5607
23.04	10.3922
23.26	0.294452
23.48	2.33805
23.7	3.40291
23.92	3.45195
24.14	0.424683
24.36	2.72395
24.58	4.88758
24.8	8.11024
25.02	45.0424
25.24	6.11114
25.46	7.11118
25.68	6.14731
25.9	1.19233
26.12	5.19362
26.34	0.810619
26.56	8.47549
26.78	6.50005
27	3.35901
27.22	3.02723
27.44	3.99198
27.66	1.0506
27.88	5.97891
28.1	9.89168
28.32	7.85515
28.54	1.80686
28.76	1.68848
28.98	2.17876
29.2	8.92477
29.42	2.81153
29.64	0.702847
29.86	4.6791
30.08	333.492
30.3	31.3281
30.52	12.7483
30.74	4.7001
30.96	1.09744
31.18	3.11946
31.4	3.31408
31.62	4.73519
31.84	16.0499
32.06	9.30749
32.28	3.33452
32.5	4.4239
32.72	4.50429
32.94	3.2607
33.16	8.44047
33.38	5.43325
33.6	23.542
33.82	8.52512
34.04	7.29195
34.26	3.36498
34.48	5.28891
34.7	4.1872
34.92	2.04902
35.14	2.89663
35.36	2.69948
35.58	5.5112
35.8	7.47411
36.02	69.1612
36.24	121.06
36.46	5.04374
36.68	6.90124
36.9	11.8115
37.12	41.9525
37.34	0.48743
37.56	6.71416
37.78	1.22223
38	6.39231
38.22	4.54463
38.44	5.82272
38.66	0.020943
38.88	3.1423
39.1	2.26998
39.32	6.36948
39.54	5.62153
39.76	4.20828
39.98	3.06283
40.2	4.57248
40.42	5.40569
40.64	4.20385
40.86	4.94116
41.08	12.653
41.3	28.6272
41.52	4.5156
41.74	6.32672
41.96	6.92934
42.18	0.09317
42.4	2.03148
42.62	3.15635
42.84	23.2656
43.06	17.4737
43.28	3.70703
43.5	2.97595
43.72	1.91631
43.94	4.1031
44.16	2.24108
44.38	7.35757
44.6	1.47748
44.82	3.56859
45.04	8.57723
45.26	15.743
45.48	3.69992
45.7	3.6732
45.92	5.66735
46.14	4.73656
46.36	2.70631
46.58	6.96712
46.8	2.08981
47.02	7.1753
47.24	9.23165
47.46	5.42203
47.68	1.42906
47.9	3.52319
48.12	2.6596
48.34	2.63297
48.56	3.58627
48.78	1.55143
49	4.31257
49.22	0.361985
49.44	0.328931
49.66	2.05225
49.88	3.66186
50.1	2.45573
50.32	4.14833
50.54	1.89581
50.76	6.69258
50.98	10.5341
51.2	3.42194
51.42	2.33391
51.64	27.391
51.86	18.3996
52.08	6.43059
52.3	3.55992
52.52	2.66125
52.74	3.81291
52.96	1.05205
53.18	16.3491
53.4	10.4654
53.62	3.51348
53.84	0.594512
54.06	0.677211
54.28	1.38996
54.5	0.391332
54.72	9.43513
54.94	18.4608
55.16	5.52839
55.38	3.52994
55.6	6.31261
55.82	8.25483
56.04	0.835551
56.26	3.04005
56.48	6.8463
56.7	0.603267
56.92	2.74334
57.14	2.54354
57.36	7.34829
57.58	2.15458
57.8	7.97706
58.02	9.32835
58.24	3.52014
58.46	195.646
58.68	33.7287
58.9	3.81803
59.12	6.68117
59.34	1.78831
59.56	2.9717
59.78	34.2544
60	16.575
60.22	8.42739
60.44	11.4355
60.66	4.39992
60.88	3.44838
61.1	0.442468
61.32	1.39731
61.54	2.54904
61.76	6.50736
61.98	9.34076
62.2	22.1033
62.42	18.9287
62.64	1.9055
62.86	0.755944
63.08	4.53517
63.3	7.69583
63.52	4.87113
63.74	11.0666
63.96	14.1456
64.18	4.2866
64.4	3.56939
64.62	3.70853
64.84	0.822809
65.06	1.91397
65.28	1.01808
65.5	5.19394
65.72	2.09133
65.94	10.1084
66.16	5.9577
66.38	0.963527
66.6	2.97652
66.82	4.93255
67.04	6.90667
67.26	1.9849
67.48	2.02672
67.7	2.05058
67.92	0.083714
68.14	0.078328
68.36	0.144477
68.58	4.82928
68.8	1.7452
69.02	2.95027
69.24	0.778692
69.46	4.71214
69.68	8.74731
69.9	1.72741
70.12	2.41878
70.34	2.50044
70.56	2.43455
70.78	2.38158
71	8.38143
71.22	4.44492
71.44	5.25361
71.66	19.4887
71.88	12.5336
72.1	0.585443
72.32	5.37491
72.54	1.58237
72.76	5.56386
72.98	7.51531
73.2	5.45526
73.42	2.37857
73.64	7.15803
73.86	4.14463
74.08	14.9118
74.3	5.9828
74.52	8.20415
74.74	4.30904
74.96	6.1466
75.18	3.25694
75.4	1.327
75.62	0.396385
75.84	2.43635
76.06	8.49266
76.28	5.56056
76.5	5.59773
76.72	12.5449
76.94	4.47278
77.16	2.42252
77.38	2.47216
77.6	4.46985
77.82	1.59981
78.04	5.90951
78.26	1.00706
78.48	1.99909
78.7	5.93689
78.92	6.94261
79.14	5.84179
79.36	6.68202
79.58	0.591645
79.8	4.51832
80.02	10.4927
80.24	5.31498
80.46	4.22411
80.68	1.30168
80.9	1.42885
81.12	1.51832
81.34	0.65353
81.56	1.81339
81.78	3.85567
82	0.932183
82.22	1.95374
82.44	1.99095
82.66	3.01072
82.88	5.98499
83.1	1.93078
83.32	2.75602
83.54	3.73165
83.76	5.67192
83.98	0.65874
84.2	3.7439
84.42	2.86524
84.64	1.88341
84.86	0.19645
85.08	1.13636
85.3	3.0163
85.52	0.845397
85.74	3.78434
85.96	1.62024
86.18	4.42125
86.4	4.18503
86.62	4.96197
86.84	4.6842
87.06	11.3485
87.28	32.3706
87.5	14.4879
87.72	8.57986
87.94	1.72576
88.16	1.90491
88.38	3.20906
88.6	1.51018
88.82	5.84128
89.04	4.25278
89.26	6.50777
89.48	3.7305
89.7	1.10368
89.92	7.42175
