Measurement: Powder, Xray Data XY Processed
Mineral: Foitite
Rruff sample: R050356
Ideal chemistry: [box](Fe^2+^_2_Al)Al_6_(Si_6_O_18_)(BO_3_)_3_(OH)_3_OH
Locality: Fano mine, Cahuilla Mountain, Riverside County, California, USA
Source: George Rossman
Description: Black prismatic, elongated and striated fragment
Diffraction sample description: Powder
Measured chemistry: (Na_0.50_[box]_0.50_)_Σ=1_(Fe^2+^_1.94_Al_0.77_Li_0.15_Mn_0.10_Mg_0.04_)_Σ=3.00_Al_6.00_(BO_3_)_3_(Si_5.88_Al_0.12_)_Σ=6_O_18_(OH)_4_ ; B and Li not measured but estimated by charge balance
Cell parameters: a: 15.9667(4) b: 15.9667(4) c: 7.1431(3) alpha: 90. beta: 90. gamma: 120. volume: 1577.08(8) crystal system: hexagonal
x	intensity
5	0
5.22	19.5009
5.44	27.0702
5.66	8.45296
5.88	13.2259
6.1	26.8641
6.32	25.6287
6.54	22.4149
6.76	30.8004
6.98	26.2338
7.2	21.6421
7.42	19.8725
7.64	21.0389
7.86	2.8804
8.08	4.90649
8.3	9.8587
8.52	5.92916
8.74	0.347725
8.96	7.97517
9.18	21.376
9.4	2.44322
9.62	13.6101
9.84	12.1454
10.06	12.2196
10.28	2.19857
10.5	21.0216
10.72	13.4375
10.94	9.15266
11.16	6.56952
11.38	10.6332
11.6	19.0476
11.82	33.0063
12.04	20.9285
12.26	14.6563
12.48	2.50577
12.7	20.3688
12.92	17.0111
13.14	2.85996
13.36	10.5444
13.58	5.98399
13.8	30.7939
14.02	300.198
14.24	11.9602
14.46	9.70466
14.68	7.88439
14.9	25.1892
15.12	7.9198
15.34	21.1705
15.56	26.4324
15.78	13.2686
16	9.32471
16.22	12.0896
16.44	17.3223
16.66	18.5747
16.88	4.8198
17.1	12.9172
17.32	31.9513
17.54	4.58332
17.76	22.5049
17.98	18.4025
18.2	20.9667
18.42	7.67612
18.64	6.77536
18.86	8.71566
19.08	24.5522
19.3	73.3332
19.52	8.06345
19.74	20.2672
19.96	7.69045
20.18	16.5582
20.4	25.0857
20.62	7.97322
20.84	12.2539
21.06	255.813
21.28	21.0886
21.5	9.73412
21.72	1.5163
21.94	4.58754
22.16	18.9242
22.38	77.5174
22.6	11.659
22.82	12.3788
23.04	9.61498
23.26	20.6283
23.48	13.753
23.7	24.8112
23.92	11.308
24.14	20.6911
24.36	26.546
24.58	18.9728
24.8	10.4657
25.02	5.88518
25.24	29.6707
25.46	22.115
25.68	66.0596
25.9	59.4393
26.12	14.8782
26.34	23.7843
26.56	9.82546
26.78	6.10546
27	23.4373
27.22	13.1308
27.44	11.4639
27.66	14.4011
27.88	23.6075
28.1	5.3091
28.32	27.1966
28.54	5.82225
28.76	17.0174
28.98	23.5675
29.2	6.14461
29.42	28.6218
29.64	48.9326
29.86	22.5526
30.08	14.5915
30.3	214.164
30.52	35.1824
30.74	25.1205
30.96	26.5219
31.18	5.64129
31.4	27.324
31.62	15.0778
31.84	15.9098
32.06	13.0183
32.28	3.51093
32.5	17.4972
32.72	10.5933
32.94	3.49634
33.16	25.4808
33.38	12.4313
33.6	19.7785
33.82	10.1617
34.04	11.4563
34.26	17.8628
34.48	23.9293
34.7	49.3426
34.92	159.651
35.14	19.5434
35.36	18.8995
35.58	18.4686
35.8	8.88774
36.02	11.1742
36.24	32.8774
36.46	7.80514
36.68	2.32784
36.9	15.0436
37.12	14.3848
37.34	16.8306
37.56	24.9776
37.78	56.5101
38	36.1685
38.22	29.5397
38.44	39.8989
38.66	14.9292
38.88	6.95687
39.1	9.0588
39.32	10.4014
39.54	16.0673
39.76	7.08373
39.98	12.3736
40.2	3.48587
40.42	15.1832
40.64	8.12797
40.86	15.0915
41.08	24.9456
41.3	97.1369
41.52	14.859
41.74	19.0973
41.96	7.15303
42.18	2.28674
42.4	14.9844
42.62	14.5202
42.84	56.7411
43.06	4.7039
43.28	8.80444
43.5	16.7861
43.72	3.16052
43.94	1.17131
44.16	1.44255
44.38	85.776
44.6	54.5894
44.82	51.5072
45.04	10.1903
45.26	2.15153
45.48	36.8597
45.7	11.7821
45.92	15.3849
46.14	12.6487
46.36	25.7439
46.58	14.421
46.8	13.1989
47.02	10.5605
47.24	24.5928
47.46	45.9775
47.68	7.66109
47.9	28.0938
48.12	10.2784
48.34	6.81654
48.56	23.3283
48.78	7.6307
49	12.049
49.22	44.4803
49.44	9.66784
49.66	11.7125
49.88	21.2206
50.1	1.5554
50.32	26.7469
50.54	18.8983
50.76	10.1049
50.98	20.7096
51.2	5.51662
51.42	6.95454
51.64	47.8653
51.86	7.23344
52.08	22.6257
52.3	17.1542
52.52	17.9309
52.74	14.7692
52.96	33.0759
53.18	22.4057
53.4	24.5568
53.62	2.2798
53.84	14.1045
54.06	26.3364
54.28	18.0175
54.5	23.4991
54.72	5.87262
54.94	1.94814
55.16	16.1241
55.38	28.0099
55.6	42.828
55.82	7.76567
56.04	20.7966
56.26	0.980812
56.48	20.7777
56.7	4.1048
56.92	15.4716
57.14	2.80507
57.36	7.46896
57.58	14.1707
57.8	26.2872
58.02	21.626
58.24	10.7629
58.46	9.69592
58.68	9.6219
58.9	5.75523
59.12	11.4967
59.34	25.5359
59.56	7.23462
59.78	11.7356
60	22.1742
60.22	31.1326
60.44	1.66708
60.66	2.46812
60.88	12.3845
61.1	21.256
61.32	5.28551
61.54	24.5128
61.76	50.4344
61.98	43.248
62.2	16.91
62.42	17.5346
62.64	6.45575
62.86	19.4812
63.08	24.4978
63.3	13.5718
63.52	4.71656
63.74	1.73567
63.96	11.2029
64.18	54.2031
64.4	30.043
64.62	8.50612
64.84	9.0051
65.06	17.089
65.28	26.0891
65.5	21.0528
65.72	44.1404
65.94	23.4196
66.16	16.0901
66.38	21.3725
66.6	63.0757
66.82	33.322
67.04	12.2569
67.26	15.1567
67.48	12.3949
67.7	5.84054
67.92	17.7924
68.14	12.9683
68.36	9.18707
68.58	15.0768
68.8	14.7813
69.02	9.27955
69.24	31.2285
69.46	21.631
69.68	7.23926
69.9	16.5535
70.12	5.04049
70.34	7.05406
70.56	16.7412
70.78	4.2494
71	13.5527
71.22	9.5047
71.44	10.2946
71.66	29.3811
71.88	24.4811
72.1	14.7958
72.32	17.2551
72.54	12.5824
72.76	17.6099
72.98	11.3861
73.2	18.6889
73.42	16.2003
73.64	24.4766
73.86	9.58762
74.08	12.7581
74.3	22.9593
74.52	16.9395
74.74	30.8659
74.96	24.437
75.18	3.15319
75.4	20.1903
75.62	21.7764
75.84	15.1067
76.06	26.6838
76.28	16.1021
76.5	8.45383
76.72	9.81039
76.94	19.8784
77.16	10.8766
77.38	9.97871
77.6	14.5949
77.82	17.4922
78.04	11.0801
78.26	7.16758
78.48	9.2186
78.7	6.33515
78.92	9.0411
79.14	17.1471
79.36	17.7725
79.58	13.0959
79.8	8.84086
80.02	24.6928
80.24	9.55113
80.46	16.9267
80.68	21.6922
80.9	10.1367
81.12	9.29865
81.34	38.0889
81.56	32.7166
81.78	14.8507
82	17.7103
82.22	8.13829
82.44	13.2371
82.66	0.170582
82.88	10.3052
83.1	3.62973
83.32	10.5344
83.54	23.4867
83.76	13.7079
83.98	21.5137
84.2	25.556
84.42	4.31682
84.64	12.49
84.86	11.3126
85.08	7.80399
85.3	21.6972
85.52	8.22711
85.74	1.3175
85.96	6.58837
86.18	3.41694
86.4	25.0874
86.62	14.811
86.84	12.1603
87.06	29.829
87.28	8.07438
87.5	1.09708
87.72	20.3532
87.94	12.6778
88.16	26.9656
88.38	7.80919
88.6	13.063
88.82	5.01791
89.04	12.1442
89.26	6.39674
89.48	15.8244
89.7	6.86914
89.92	24.1325
