Measurement: Powder, Xray Data XY Processed
Mineral: Forsterite
Rruff sample: R040052
Ideal chemistry: Mg_2_SiO_4_
Locality: Synthetic, Czochralski method
Source: Hideki Kanazawa of Kyoto University, Japan
Description: Colorless crystal fragments obtained from a boule.
Diffraction sample description: Powder
Measured chemistry: Mg_2.00_Si_1.00_O_4_
Cell parameters: a: 4.7558(2) b: 10.1965(4) c: 5.9817(2) alpha: 90. beta: 90. gamma: 90. volume: 290.07(1) crystal system: orthorhombic
x	intensity
5	0
5.22	16.551
5.44	5.516
5.66	12.629
5.88	4.223
6.1	5.972
6.32	4.526
6.54	11.376
6.76	17.884
6.98	13.406
7.2	5.678
7.42	12.091
7.64	3.406
7.86	6.477
8.08	1.215
8.3	1.484
8.52	1.076
8.74	12.499
8.96	3.805
9.18	11.193
9.4	1.694
9.62	4.974
9.84	5.394
10.06	18.457
10.28	17.605
10.5	15.28
10.72	8.353
10.94	4.022
11.16	2.915
11.38	2.879
11.6	0.058
11.82	11.869
12.04	0.072
12.26	0.886
12.48	12.296
12.7	3.566
12.92	7.686
13.14	1.833
13.36	1.223
13.58	11.695
13.8	6.196
14.02	4.351
14.24	4.508
14.46	5.65
14.68	5.778
14.9	10.672
15.12	10.461
15.34	12.617
15.56	6.702
15.78	8.003
16	5.745
16.22	6.293
16.44	4.139
16.66	0.036
16.88	0.935
17.1	1.591
17.32	17.434
17.54	23.353
17.76	1.15
17.98	2.005
18.2	4.638
18.42	9.068
18.64	17.424
18.86	15.918
19.08	3.566
19.3	4.95
19.52	5.25
19.74	11.58
19.96	4.892
20.18	7.07
20.4	5.135
20.62	16.251
20.84	4.562
21.06	3.301
21.28	0.863
21.5	5.199
21.72	7.687
21.94	8.339
22.16	7.93
22.38	3.884
22.6	7.592
22.82	49.374
23.04	206.984
23.26	6.409
23.48	4.579
23.7	10.008
23.92	181.122
24.14	18.528
24.36	4.697
24.58	0.087
24.8	6.758
25.02	7.949
25.24	9.333
25.46	56.509
25.68	68.451
25.9	1.075
26.12	3.866
26.34	3.013
26.56	4.942
26.78	2.905
27	5.946
27.22	4.025
27.44	3.727
27.66	4.234
27.88	6.823
28.1	11.335
28.32	7.445
28.54	15.074
28.76	21.739
28.98	9.488
29.2	21.628
29.42	5.976
29.64	8.06
29.86	57.679
30.08	6.205
30.3	1.505
30.52	8.734
30.74	3.068
30.96	8.295
31.18	3.608
31.4	6.275
31.62	4.251
31.84	6.713
32.06	2.769
32.28	35.746
32.5	143.979
32.72	14.309
32.94	9.511
33.16	1.505
33.38	14.771
33.6	5.914
33.82	0.248
34.04	1.777
34.26	5.635
34.48	4.155
34.7	4.318
34.92	2.311
35.14	2.29
35.36	4.273
35.58	8.252
35.8	707.598
36.02	29.186
36.24	12.21
36.46	33.476
36.68	338.793
36.9	16.319
37.12	10.739
37.34	2.056
37.56	2.516
37.78	0.298
38	4.875
38.22	10.354
38.44	65.41
38.66	12.332
38.88	28.89
39.1	6.449
39.32	16.452
39.54	3.733
39.76	270.225
39.98	25.966
40.2	91.521
40.42	10.876
40.64	0.874
40.86	2.231
41.08	2.289
41.3	4.057
41.52	4.221
41.74	15.361
41.96	66.252
42.18	0.424
42.4	1.013
42.62	0.017
42.84	10.28
43.06	9.562
43.28	1.178
43.5	3.778
43.72	7.813
43.94	7.089
44.16	1.39
44.38	6.78
44.6	16.509
44.82	12.602
45.04	7.454
45.26	8.122
45.48	7.827
45.7	5.47
45.92	8.233
46.14	8.991
46.36	0.505
46.58	10.076
46.8	11.197
47.02	8.079
47.24	11.18
47.46	4.034
47.68	4.892
47.9	4.889
48.12	5.034
48.34	8.188
48.56	83.131
48.78	5.249
49	4.24
49.22	9.991
49.44	2.27
49.66	6.525
49.88	3.509
50.1	1.462
50.32	1.799
50.54	8.141
50.76	9.125
50.98	10.036
51.2	27.963
51.42	0.103
51.64	1.683
51.86	6.671
52.08	5.857
52.3	283.985
52.52	100.4
52.74	55.185
52.96	39.217
53.18	3.784
53.4	6.597
53.62	9.798
53.84	4.875
54.06	1.915
54.28	0.9
54.5	0.23
54.72	3.312
54.94	26.902
55.16	72.573
55.38	9.895
55.6	5.557
55.82	1.903
56.04	3.471
56.26	83.335
56.48	20.056
56.7	5.85
56.92	68.054
57.14	13.717
57.36	3.697
57.58	109.483
57.8	3.685
58.02	11.079
58.24	28.683
58.46	0.232
58.68	10.569
58.9	31.934
59.12	5.415
59.34	3.026
59.56	5.509
59.78	3.048
60	9.081
60.22	8.856
60.44	5.42
60.66	1.357
60.88	2.027
61.1	6.281
61.32	15.954
61.54	11.191
61.76	16.515
61.98	44.689
62.2	47.446
62.42	4.367
62.64	4.842
62.86	202.525
63.08	92.219
63.3	5.984
63.52	2.89
63.74	2.249
63.96	0.91
64.18	8.534
64.4	6.265
64.62	4.721
64.84	12.325
65.06	15.322
65.28	6.475
65.5	9.336
65.72	4.16
65.94	5.93
66.16	0.218
66.38	7.63
66.6	1.436
66.82	1.034
67.04	21.032
67.26	30.786
67.48	49.931
67.7	21.819
67.92	8.637
68.14	5.652
68.36	0.267
68.58	1.789
68.8	8.854
69.02	2.954
69.24	13.038
69.46	6.152
69.68	13.283
69.9	46.458
70.12	11.638
70.34	5.928
70.56	3.041
70.78	2.073
71	1.131
71.22	2.231
71.44	5.249
71.66	19.21
71.88	41.004
72.1	14.861
72.32	5.702
72.54	4.891
72.76	3.13
72.98	2.508
73.2	12.777
73.42	10.002
73.64	1.122
73.86	7.278
74.08	2.263
74.3	1.159
74.52	8.103
74.74	5.912
74.96	9.35
75.18	4.875
75.4	5.411
75.62	7.101
75.84	8.056
76.06	12.143
76.28	11.006
76.5	10.205
76.72	8.307
76.94	5.345
77.16	12.516
77.38	0.316
77.6	0.875
77.82	10.316
78.04	11.64
78.26	1.902
78.48	0.861
78.7	6.07
78.92	4.169
79.14	3.746
79.36	4.958
79.58	3.049
79.8	1.209
80.02	5.295
80.24	3.204
80.46	5.118
80.68	3.222
80.9	11.587
81.12	3.595
81.34	5.144
81.56	5.795
81.78	2.556
82	9.349
82.22	6.075
82.44	9.035
82.66	8.625
82.88	7.321
83.1	0.921
83.32	2.351
83.54	2.142
83.76	48.05
83.98	25.902
84.2	2.809
84.42	17.772
84.64	8.783
84.86	0.579
85.08	4.005
85.3	13.392
85.52	10.19
85.74	6.401
85.96	1.977
86.18	1.23
86.4	2.456
86.62	21.661
86.84	6.837
87.06	6.343
87.28	7.34
87.5	0.187
87.72	8.143
87.94	1.198
88.16	0.997
88.38	2.776
88.6	12.73
88.82	1.826
89.04	5.904
89.26	6.504
89.48	2.471
89.7	0.721
89.92	4.544
