Measurement: Powder, Xray Data XY Processed
Mineral: Franklinite
Rruff sample: R070137
Ideal chemistry: Zn^2+^Fe^3+^_2_O_4_
Locality: Franklin mine, Franklin, Sussex County, New Jersey, USA
Source: Michael Scott
Description: Gray semi-metallic octahedral crystals associated with calcite
Diffraction sample description: Powder
Measured chemistry: (Zn_0.63_Mn_0.36_Mg_0.01_)_Σ=1_(Fe^3+^_1.96_Al_0.04_)_Σ=2_O_4_
Cell parameters: a: 8.46609(9) b: 8.46609(9) c: 8.46609(9) alpha: 90 beta: 90 gamma: 90 volume: 606.80(2) crystal system: cubic
x	intensity
5	0
5.22	1.67647
5.44	25.5235
5.66	8.77745
5.88	2.97908
6.1	20.3349
6.32	53.4637
6.54	3.95998
6.76	32.4653
6.98	6.85894
7.2	31.9927
7.42	28.8247
7.64	32.6409
7.86	12.3613
8.08	29.8524
8.3	21.4923
8.52	7.47879
8.74	18.3457
8.96	1.81424
9.18	43.9186
9.4	25.0006
9.62	13.4804
9.84	16.4954
10.06	8.58476
10.28	6.15153
10.5	35.2229
10.72	33.1145
10.94	19.207
11.16	15.2982
11.38	1.15213
11.6	13.5673
11.82	0.875412
12.04	32.5511
12.26	17.1513
12.48	29.6039
12.7	13.6761
12.92	51.128
13.14	29.4233
13.36	27.1213
13.58	13.4103
13.8	32.6974
14.02	16.1034
14.24	16.3855
14.46	33.009
14.68	44.2698
14.9	34.5818
15.12	13.2979
15.34	24.0118
15.56	25.9086
15.78	17.226
16	48.3809
16.22	9.73834
16.44	5.40315
16.66	7.41975
16.88	26.3018
17.1	21.9877
17.32	37.5536
17.54	19.9323
17.76	8.23822
17.98	28.8039
18.2	72.8893
18.42	5.45531
18.64	2.02922
18.86	16.8067
19.08	10.6379
19.3	29.3081
19.52	10.1225
19.74	5.75256
19.96	30.3238
20.18	45.1068
20.4	7.31622
20.62	21.8408
20.84	31.8568
21.06	15.3858
21.28	16.7188
21.5	17.0679
21.72	8.5972
21.94	20.1735
22.16	30.549
22.38	1.99774
22.6	21.1949
22.82	21.5059
23.04	10.2364
23.26	33.9191
23.48	24.5637
23.7	27.2749
23.92	32.7373
24.14	17.3532
24.36	22.6489
24.58	23.8068
24.8	20.4724
25.02	46.386
25.24	2.05679
25.46	15.219
25.68	28.074
25.9	26.6777
26.12	11.2766
26.34	22.3143
26.56	12.2462
26.78	29.3275
27	20.0986
27.22	30.382
27.44	39.3069
27.66	21.1359
27.88	17.9103
28.1	6.50948
28.32	45.9271
28.54	14.8377
28.76	19.0618
28.98	21.0864
29.2	2.30211
29.42	30.695
29.64	24.184
29.86	308.625
30.08	34.2079
30.3	32.9626
30.52	35.0232
30.74	16.2967
30.96	3.47319
31.18	37.9133
31.4	34.4089
31.62	16.2066
31.84	34.6987
32.06	37.7035
32.28	11.2187
32.5	23.0647
32.72	27.5288
32.94	1.41693
33.16	9.2774
33.38	21.2366
33.6	11.2043
33.82	13.918
34.04	6.92055
34.26	28.5714
34.48	33.6403
34.7	47.8036
34.92	40.9495
35.14	567.827
35.36	90.7955
35.58	32.0058
35.8	5.38687
36.02	2.75913
36.24	29.2724
36.46	5.58748
36.68	41.2195
36.9	66.6935
37.12	13.9224
37.34	25.7884
37.56	34.7822
37.78	5.85718
38	0.644485
38.22	25.1091
38.44	48.7038
38.66	22.0496
38.88	35.1777
39.1	49.3859
39.32	23.009
39.54	12.8264
39.76	18.2242
39.98	16.7316
40.2	1.7234
40.42	42.2994
40.64	33.7319
40.86	8.87117
41.08	48.3846
41.3	43.5458
41.52	35.2804
41.74	32.8097
41.96	13.7132
42.18	24.3696
42.4	36.0881
42.62	32.9116
42.84	91.8489
43.06	7.70815
43.28	38.1826
43.5	0.695145
43.72	0.503479
43.94	16.5504
44.16	7.47339
44.38	44.842
44.6	30.4881
44.82	15.4361
45.04	24.9542
45.26	34.6352
45.48	57.4452
45.7	43.3051
45.92	14.5372
46.14	17.6452
46.36	58.1692
46.58	26.0416
46.8	32.1365
47.02	21.5057
47.24	12.8722
47.46	32.6718
47.68	12.144
47.9	37.8375
48.12	44.242
48.34	16.3265
48.56	19.6109
48.78	6.87488
49	15.0416
49.22	20.8055
49.44	42.8354
49.66	33.7246
49.88	18.4707
50.1	13.7011
50.32	30.2714
50.54	28.0324
50.76	12.464
50.98	28.4853
51.2	0.221191
51.42	20.9293
51.64	16.2973
51.86	18.4121
52.08	9.33006
52.3	33.7142
52.52	11.6388
52.74	7.66179
52.96	105.864
53.18	34.8694
53.4	20.3956
53.62	36.7789
53.84	25.9508
54.06	1.34139
54.28	13.5131
54.5	33.292
54.72	44.6254
54.94	0.946198
55.16	10.7927
55.38	53.1186
55.6	4.26883
55.82	20.6918
56.04	32.3672
56.26	56.9437
56.48	272.939
56.7	52.5023
56.92	21.8958
57.14	7.47217
57.36	46.3552
57.58	23.1858
57.8	21.0062
58.02	40.3856
58.24	29.8299
58.46	42.2225
58.68	34.265
58.9	26.7765
59.12	26.9294
59.34	29.4012
59.56	5.33157
59.78	22.027
60	31.4904
60.22	3.11302
60.44	17.4415
60.66	0.60199
60.88	10.764
61.1	15.0017
61.32	0.864792
61.54	19.8748
61.76	8.67003
61.98	244.303
62.2	127.612
62.42	32.7934
62.64	19.638
62.86	12.3384
63.08	8.64896
63.3	37.395
63.52	15.2841
63.74	11.4117
63.96	39.7268
64.18	12.1854
64.4	24.4078
64.62	4.6633
64.84	10.8663
65.06	35.9349
65.28	24.7712
65.5	27.248
65.72	12.4164
65.94	27.7871
66.16	11.8103
66.38	7.24612
66.6	14.0524
66.82	18.167
67.04	22.992
67.26	41.1106
67.48	14.4291
67.7	5.33845
67.92	10.3957
68.14	51.734
68.36	24.8768
68.58	45.3563
68.8	9.797
69.02	51.1193
69.24	54.6484
69.46	6.2827
69.68	28.5667
69.9	37.1934
70.12	35.0062
70.34	15.8996
70.56	18.7554
70.78	57.1994
71	14.0891
71.22	4.12599
71.44	24.5411
71.66	50.6232
71.88	17.4873
72.1	25.8305
72.32	16.1965
72.54	42.7121
72.76	45.9208
72.98	20.0894
73.2	49.4595
73.42	24.547
73.64	17.2855
73.86	24.0852
74.08	47.3196
74.3	60.555
74.52	12.9881
74.74	9.03224
74.96	35.2633
75.18	40.1128
75.4	6.21623
75.62	33.7837
75.84	38.0066
76.06	14.2249
76.28	19.671
76.5	28.8684
76.72	52.778
76.94	37.6787
77.16	39.2366
77.38	14.9734
77.6	34.7716
77.82	38.2511
78.04	11.9197
78.26	17.4169
78.48	35.2837
78.7	10.6884
78.92	9.84958
79.14	0.256195
79.36	24.9532
79.58	18.547
79.8	5.02835
80.02	37.1499
80.24	5.07449
80.46	28.252
80.68	36.4739
80.9	62.8594
81.12	27.4164
81.34	39.0843
81.56	43.2321
81.78	1.422
82	18.7697
82.22	15.8097
82.44	15.8741
82.66	7.84761
82.88	42.8153
83.1	27.3586
83.32	29.154
83.54	15.8726
83.76	31.2091
83.98	5.10466
84.2	22.6756
84.42	38.7197
84.64	20.0472
84.86	47.8871
85.08	25.166
85.3	1.59845
85.52	26.5466
85.74	31.6088
85.96	22.9361
86.18	14.9464
86.4	48.2167
86.62	33.2838
86.84	28.2622
87.06	0.586594
87.28	32.5117
87.5	30.989
87.72	27.794
87.94	40.2038
88.16	25.9554
88.38	12.8261
88.6	34.848
88.82	35.7202
89.04	41.9096
89.26	48.7391
89.48	30.6986
89.7	11.897
89.92	14.7404
