Measurement: Powder, Xray Data XY Processed
Mineral: Fresnoite
Rruff sample: R050595
Ideal chemistry: Ba_2_Ti^4+^O(Si_2_O_7_)
Locality: Junnila claim, Clear Creek area, New Idria district, San Benito County, California, USA
Source: Scott Kleine
Description: Pink to yellow massive fragment
Diffraction sample description: Single crystal, powder profile is calculated
Measured chemistry: Ba_2.00_Ti_1.00_O(Si_2.00_O_7_)
Cell parameters: a: 8.5146(9) b: 8.5146(9) c: 5.2041(8) alpha: 90 beta: 90 gamma: 90 volume: 377.29(5) crystal system: tetragonal
x	intensity
5	0
5.22	0
5.44	0
5.66	0
5.88	0
6.1	0
6.32	0
6.54	0
6.76	0
6.98	0
7.2	0
7.42	0
7.64	0
7.86	0
8.08	0
8.3	0
8.52	0
8.74	0
8.96	0
9.18	0
9.4	0
9.62	0
9.84	0
10.06	0
10.28	0
10.5	0
10.72	0
10.94	0
11.16	0
11.38	0
11.6	0
11.82	0
12.04	0
12.26	0
12.48	0
12.7	0
12.92	0
13.14	0
13.36	0
13.58	0
13.8	0
14.02	0
14.24	0
14.46	0
14.68	3.159
14.9	0
15.12	0
15.34	0
15.56	0
15.78	0
16	0
16.22	0
16.44	0
16.66	0
16.88	0
17.1	3.107
17.32	0
17.54	0
17.76	0
17.98	0
18.2	0
18.42	0
18.64	0
18.86	0
19.08	0
19.3	0
19.52	0
19.74	0
19.96	0
20.18	0
20.4	0
20.62	0
20.84	6.005
21.06	0
21.28	0
21.5	0
21.72	0
21.94	0
22.16	0
22.38	0
22.6	7.943
22.82	0
23.04	0
23.26	0.336
23.48	0.187
23.7	0
23.92	0
24.14	0
24.36	0
24.58	0
24.8	0
25.02	0
25.24	0
25.46	0
25.68	0
25.9	0
26.12	0
26.34	0
26.56	0
26.78	0
27	19.265
27.22	0.013
27.44	0
27.66	0
27.88	0
28.1	0
28.32	0
28.54	0
28.76	0
28.98	22.058
29.2	0.38
29.42	0
29.64	6.757
29.86	0
30.08	0
30.3	0
30.52	0
30.74	0
30.96	0
31.18	0
31.4	0
31.62	0
31.84	0
32.06	0
32.28	0
32.5	0
32.72	0
32.94	0
33.16	0.472
33.38	3.316
33.6	0
33.82	0
34.04	0
34.26	0
34.48	8.252
34.7	0
34.92	0
35.14	0
35.36	0
35.58	0
35.8	0
36.02	0
36.24	0
36.46	0
36.68	0
36.9	0
37.12	0
37.34	0
37.56	4.61
37.78	0.126
38	0.069
38.22	0.179
38.44	0
38.66	0
38.88	0
39.1	0
39.32	0
39.54	0
39.76	0
39.98	0
40.2	0
40.42	0
40.64	2.636
40.86	0
41.08	0
41.3	0
41.52	0
41.74	0
41.96	3.887
42.18	3.103
42.4	0.853
42.62	0.035
42.84	0
43.06	0
43.28	0
43.5	0
43.72	0.636
43.94	6.109
44.16	0
44.38	0
44.6	0
44.82	0
45.04	0.065
45.26	3.771
45.48	0
45.7	0
45.92	0.009
46.14	1.983
46.36	0
46.58	0
46.8	0
47.02	0
47.24	0.85
47.46	6.839
47.68	1.267
47.9	0.894
48.12	0
48.34	0
48.56	10.904
48.78	4.135
49	0
49.22	0
49.44	0
49.66	0
49.88	0
50.1	0
50.32	0
50.54	0
50.76	0
50.98	0.041
51.2	0.072
51.42	0
51.64	0
51.86	0
52.08	0
52.3	0.592
52.52	0.003
52.74	1.685
52.96	0.026
53.18	0
53.4	0
53.62	0
53.84	0.03
54.06	0
54.28	0
54.5	0
54.72	0
54.94	0.083
55.16	0.115
55.38	0
55.6	0
55.82	0.18
56.04	0
56.26	0
56.48	0
56.7	0
56.92	3.859
57.14	0.036
57.36	1.199
57.58	0.007
57.8	0
58.02	4.852
58.24	0.2
58.46	4.676
58.68	0.057
58.9	0
59.12	0
59.34	0
59.56	0
59.78	0
60	0
60.22	0.727
60.44	0.018
60.66	0
60.88	0
61.1	0.023
61.32	0.627
61.54	0.946
61.76	0.502
61.98	0
62.2	0
62.42	0
62.64	0
62.86	0
63.08	0
63.3	0
63.52	0
63.74	0.87
63.96	0.248
64.18	0
64.4	0.262
64.62	0.044
64.84	0
65.06	0
65.28	0
65.5	0.054
65.72	1.805
65.94	1.332
66.16	0
66.38	0.501
66.6	0.889
66.82	0.511
67.04	0.191
67.26	0
67.48	0
67.7	0
67.92	0
68.14	0
68.36	0.015
68.58	0.101
68.8	0.003
69.02	0
69.24	0
69.46	0.65
69.68	0.626
69.9	0.125
70.12	0.049
70.34	0
70.56	0
70.78	1.025
71	0.759
71.22	0.011
71.44	0
71.66	0
71.88	2.96
72.1	1.416
72.32	0.005
72.54	0.745
72.76	0.309
72.98	0
73.2	0
73.42	2.689
73.64	1.452
73.86	0.281
74.08	0.13
74.3	0.002
74.52	0.388
74.74	0.371
74.96	0.1
75.18	0
75.4	0
75.62	0
75.84	0
76.06	0
76.28	0.093
76.5	0.605
76.72	0.288
76.94	0
77.16	0
77.38	0.476
77.6	0.248
77.82	0.003
78.04	0
78.26	0
78.48	0
78.7	0.024
78.92	0.014
79.14	0
79.36	0
79.58	0.859
79.8	0.313
80.02	0
80.24	0.798
80.46	0.482
80.68	0.005
80.9	0
81.12	1.057
81.34	0.227
81.56	0.001
81.78	0.001
82	0.047
82.22	2.295
82.44	3.161
82.66	1.056
82.88	0.001
83.1	0
83.32	0
83.54	0
83.76	0
83.98	0.801
84.2	0.324
84.42	0
84.64	0
84.86	0.647
85.08	0.362
85.3	0.494
85.52	0.084
85.74	0
85.96	0
86.18	0
86.4	0
86.62	0
86.84	0
87.06	0.444
87.28	0.11
87.5	0.361
87.72	0
87.94	0.127
88.16	0.209
88.38	0
88.6	0
88.82	1.597
89.04	1.084
89.26	0.062
89.48	0.001
89.7	0.621
89.92	0.288
