Measurement: Powder, Xray Data XY Processed
Mineral: Gahnite
Rruff sample: R040027
Ideal chemistry: Zn^2+^Al_2_O_4_
Locality: Rowe, Franklin County, Massachusetts, USA
Source: University of Arizona Mineral Museum
Description: Dark blue octahedral single crystals embedded in quartz matrix
Diffraction sample description: Powder
Measured chemistry: (Zn_0.83_Fe_0.11_Mg_0.06_)_Σ=1_(Al_0.96_Fe_0.04_)_Σ=2_O_4_
Cell parameters: a: 8.0988(2) b: 8.0988(2) c: 8.0988(2) alpha: 90. beta: 90. gamma: 90. volume: 531.22(4) crystal system: cubic
x	intensity
5	0
5.22	17.456
5.44	16.109
5.66	18.787
5.88	9.917
6.1	24.961
6.32	64.776
6.54	5.718
6.76	10.331
6.98	8.09
7.2	21.68
7.42	3.953
7.64	0.576
7.86	8.706
8.08	13.696
8.3	19.619
8.52	19.068
8.74	5.159
8.96	42.085
9.18	5.998
9.4	13.458
9.62	23.16
9.84	22.62
10.06	12.218
10.28	18.845
10.5	7.951
10.72	2.542
10.94	13.987
11.16	3.886
11.38	20.341
11.6	9.785
11.82	7.749
12.04	7.572
12.26	23.56
12.48	41.28
12.7	13.56
12.92	8.848
13.14	15.872
13.36	17.613
13.58	13.811
13.8	17.334
14.02	15.848
14.24	15.738
14.46	13.49
14.68	12.445
14.9	7.435
15.12	8.972
15.34	10.014
15.56	12.904
15.78	8.348
16	10.495
16.22	10.658
16.44	20.519
16.66	10.809
16.88	16.535
17.1	12.579
17.32	5.931
17.54	9.259
17.76	22.252
17.98	25.821
18.2	13.623
18.42	15.333
18.64	13.528
18.86	59.596
19.08	50.518
19.3	6.415
19.52	5.322
19.74	11.439
19.96	8.185
20.18	2.318
20.4	2.444
20.62	14.624
20.84	3.811
21.06	4.312
21.28	19.259
21.5	11.48
21.72	10.591
21.94	8.68
22.16	14.415
22.38	30.531
22.6	17.971
22.82	17.3
23.04	14.127
23.26	14.449
23.48	8.273
23.7	9.041
23.92	9.769
24.14	13.258
24.36	13.07
24.58	5.174
24.8	8.971
25.02	0.015
25.24	82.222
25.46	28.228
25.68	16.769
25.9	2.229
26.12	22.315
26.34	10.434
26.56	13.592
26.78	2.41
27	17.21
27.22	7.089
27.44	2.951
27.66	2.881
27.88	8.937
28.1	9.706
28.32	2.443
28.54	15.457
28.76	6.91
28.98	16.286
29.2	13.121
29.42	0.51
29.64	7.811
29.86	3.01
30.08	4.094
30.3	4.726
30.52	2.689
30.74	1.265
30.96	0.645
31.18	139.567
31.4	375.531
31.62	35.306
31.84	3.507
32.06	1.096
32.28	9.406
32.5	0.058
32.72	11.434
32.94	11.307
33.16	39.474
33.38	27.417
33.6	13.239
33.82	32.208
34.04	16.473
34.26	11.485
34.48	7.249
34.7	8.895
34.92	27.324
35.14	11.44
35.36	13.509
35.58	21.285
35.8	2.393
36.02	8.119
36.24	13.726
36.46	29.866
36.68	96.134
36.9	972.73
37.12	62.618
37.34	16.044
37.56	8.496
37.78	0.998
38	8.623
38.22	3.66
38.44	4.389
38.66	29.189
38.88	7.233
39.1	13.364
39.32	15.34
39.54	32.523
39.76	21.334
39.98	25.525
40.2	13.353
40.42	5.631
40.64	15.048
40.86	22.684
41.08	4.362
41.3	19.313
41.52	18.306
41.74	21.89
41.96	1.323
42.18	8.732
42.4	6.062
42.62	13.601
42.84	5.792
43.06	16.118
43.28	10.593
43.5	2.476
43.72	6.001
43.94	7.575
44.16	11.44
44.38	14.27
44.6	20.356
44.82	79.438
45.04	12.883
45.26	14.237
45.48	15.073
45.7	13.486
45.92	19.851
46.14	1.519
46.36	17.557
46.58	6.547
46.8	25.844
47.02	13.225
47.24	21.177
47.46	4.323
47.68	10.54
47.9	6.85
48.12	20.451
48.34	0.217
48.56	12.731
48.78	4.005
49	55.023
49.22	46.941
49.44	13.267
49.66	15.214
49.88	29.017
50.1	2.162
50.32	4.384
50.54	2.598
50.76	15.863
50.98	9.083
51.2	13.058
51.42	20.508
51.64	12.618
51.86	28.501
52.08	17.808
52.3	11.374
52.52	15.62
52.74	8.561
52.96	12.023
53.18	21.733
53.4	5.507
53.62	18.183
53.84	8.923
54.06	5.907
54.28	4.462
54.5	7.172
54.72	14.898
54.94	14.887
55.16	6.094
55.38	27.514
55.6	618.573
55.82	85.111
56.04	19.556
56.26	1.958
56.48	15.327
56.7	8.503
56.92	17.59
57.14	13.723
57.36	14.984
57.58	10.196
57.8	0.677
58.02	3.688
58.24	24
58.46	3.083
58.68	0.05
58.9	0.764
59.12	54.843
59.34	436.919
59.56	74.592
59.78	14.604
60	18.173
60.22	14.831
60.44	11.588
60.66	6.653
60.88	2.235
61.1	23.612
61.32	5.58
61.54	15.156
61.76	9.611
61.98	13.409
62.2	14.305
62.42	2.459
62.64	19.389
62.86	16.689
63.08	8.236
63.3	11.815
63.52	22.987
63.74	7.574
63.96	12.351
64.18	9.404
64.4	3.798
64.62	13.317
64.84	35.835
65.06	86.49
65.28	223.612
65.5	45.543
65.72	21.485
65.94	10.991
66.16	12.832
66.38	2.658
66.6	26.311
66.82	8.192
67.04	12.205
67.26	8.26
67.48	1.447
67.7	7.934
67.92	9.05
68.14	12.461
68.36	5.324
68.58	6.891
68.8	13.962
69.02	7.799
69.24	18.513
69.46	7.78
69.68	0.804
69.9	9.089
70.12	16.625
70.34	8.747
70.56	5.116
70.78	1.209
71	11.719
71.22	24.674
71.44	11.085
71.66	3.948
71.88	17.641
72.1	9.065
72.32	8.187
72.54	11.377
72.76	9.853
72.98	3.845
73.2	9.062
73.42	16.048
73.64	6.093
73.86	36.023
74.08	120.087
74.3	32.922
74.52	16.198
74.74	13.702
74.96	18.157
75.18	16.646
75.4	12.895
75.62	11.936
75.84	6.081
76.06	8.51
76.28	5.088
76.5	8.908
76.72	11.519
76.94	11.146
77.16	62.343
77.38	37.245
77.6	5.73
77.82	0.112
78.04	16.804
78.26	16.365
78.48	2.844
78.7	9.805
78.92	21.544
79.14	18.31
79.36	21.771
79.58	2.656
79.8	5.865
80.02	13.354
80.24	23.278
80.46	1.069
80.68	13.904
80.9	18.554
81.12	5.425
81.34	3.998
81.56	8.448
81.78	23.163
82	16.951
82.22	22.227
82.44	17.63
82.66	15.573
82.88	8.252
83.1	22.62
83.32	3.847
83.54	15.995
83.76	9.212
83.98	17.502
84.2	9.594
84.42	1.693
84.64	4.774
84.86	16.848
85.08	7.849
85.3	4.726
85.52	21.722
85.74	18.875
85.96	16.893
86.18	6.093
86.4	13.237
86.62	12.592
86.84	10.423
87.06	12.568
87.28	2.287
87.5	5.828
87.72	17.602
87.94	20.578
88.16	0.135
88.38	15.94
88.6	9.675
88.82	9.728
89.04	11.934
89.26	9.005
89.48	8.746
89.7	10.968
89.92	8.3
