Measurement: Powder, Xray Data XY Processed
Mineral: Galena
Rruff sample: R070325
Ideal chemistry: Pb^2+^S^2-^
Locality: Cumberland, England
Source: James Shigley
Description: Lead-grey metallic cubo-octahedral crystal associated with quartz and calcite
Diffraction sample description: Powder
Measured chemistry: Pb_1.00_S_1.00_
Cell parameters: a: 5.9373(1) b: 5.9373(1) c: 5.9373(1) alpha: 90 beta: 90 gamma: 90 volume: 209.30(1) crystal system: cubic
x	intensity
5	0
5.22	6.52603
5.44	6.08261
5.66	8.52443
5.88	10.3538
6.1	14.1255
6.32	6.50317
6.54	8.26003
6.76	13.4341
6.98	22.6437
7.2	4.45041
7.42	3.25482
7.64	1.01784
7.86	11.4863
8.08	9.86785
8.3	3.1535
8.52	11.2652
8.74	4.6817
8.96	2.34913
9.18	5.96256
9.4	1.48229
9.62	0.849748
9.84	10.6079
10.06	13.3061
10.28	15.3599
10.5	5.50386
10.72	1.49809
10.94	7.61697
11.16	12.7873
11.38	5.97222
11.6	7.15703
11.82	5.22618
12.04	4.31359
12.26	15.5816
12.48	0.805625
12.7	3.1165
12.92	4.21782
13.14	3.4597
13.36	3.54198
13.58	2.85508
13.8	14.0215
14.02	13.2383
14.24	5.0547
14.46	5.75629
14.68	11.623
14.9	16.3558
15.12	10.0255
15.34	1.73494
15.56	5.89573
15.78	2.76289
16	12.397
16.22	10.3158
16.44	6.04382
16.66	10.0443
16.88	6.41208
17.1	4.42307
17.32	9.57062
17.54	3.75022
17.76	2.86431
17.98	1.7228
18.2	8.08314
18.42	4.11051
18.64	2.12516
18.86	8.11862
19.08	9.12915
19.3	7.86013
19.52	9.89672
19.74	3.85245
19.96	2.63689
20.18	3.54519
20.4	2.56566
20.62	9.35086
20.84	11.3259
21.06	3.18843
21.28	2.20785
21.5	0.212923
21.72	4.1601
21.94	7.19394
22.16	0.207046
22.38	5.19889
22.6	11.2311
22.82	4.26987
23.04	7.97168
23.26	7.16188
23.48	13.392
23.7	1.5277
23.92	5.42703
24.14	3.1063
24.36	7.47094
24.58	6.76282
24.8	1.11247
25.02	10.1341
25.24	1.65378
25.46	8.64252
25.68	22.7833
25.9	115.95
26.12	377.075
26.34	33.999
26.56	10.0994
26.78	1.66493
27	9.12207
27.22	26.2636
27.44	2.84392
27.66	5.88293
27.88	1.28554
28.1	4.92359
28.32	0.973653
28.54	8.93776
28.76	5.48724
28.98	2.83883
29.2	6.38876
29.42	6.70732
29.64	10.9292
29.86	20.833
30.08	356.411
30.3	216.298
30.52	23.9433
30.74	13.3814
30.96	12.8213
31.18	2.18971
31.4	1.61393
31.62	4.32252
31.84	2.70212
32.06	1.2467
32.28	8.13458
32.5	1.33148
32.72	1.34301
32.94	5.40273
33.16	7.38757
33.38	11.8293
33.6	2.05794
33.82	0.09253
34.04	3.89754
34.26	9.52446
34.48	2.47412
34.7	8.60154
34.92	4.69234
35.14	8.91718
35.36	4.83426
35.58	7.73885
35.8	2.57294
36.02	1.48793
36.24	2.26476
36.46	4.45436
36.68	1.38485
36.9	6.46685
37.12	4.39795
37.34	11.329
37.56	0.117118
37.78	0.026682
38	6.96534
38.22	2.19506
38.44	5.17196
38.66	16.5372
38.88	11.728
39.1	0.269558
39.32	3.18052
39.54	8.40429
39.76	6.20979
39.98	13.4497
40.2	12.5872
40.42	8.32364
40.64	9.82757
40.86	13.4043
41.08	15.3498
41.3	11.546
41.52	8.6028
41.74	1.6346
41.96	7.17074
42.18	8.32172
42.4	8.24308
42.62	13.3857
42.84	47.9847
43.06	244.733
43.28	248.996
43.5	39.6174
43.72	9.36486
43.94	0.807838
44.16	6.96378
44.38	9.68738
44.6	1.43681
44.82	0.762961
45.04	1.18138
45.26	6.28882
45.48	4.70956
45.7	8.81935
45.92	7.82329
46.14	0.675356
46.36	4.71789
46.58	5.69706
46.8	18.7939
47.02	1.22925
47.24	13.764
47.46	5.8891
47.68	8.83901
47.9	4.92145
48.12	7.62783
48.34	2.70922
48.56	5.90515
48.78	0.581405
49	3.99398
49.22	2.37236
49.44	4.05113
49.66	1.76715
49.88	4.45347
50.1	1.36449
50.32	8.87618
50.54	2.4189
50.76	36.6251
50.98	213.297
51.2	157.306
51.42	32.9009
51.64	10.8855
51.86	4.96535
52.08	0.163925
52.3	1.63699
52.52	4.53915
52.74	2.67979
52.96	11.8529
53.18	28.8283
53.4	81.0705
53.62	83.2047
53.84	24.0949
54.06	7.47776
54.28	3.95912
54.5	2.7705
54.72	4.26242
54.94	7.76376
55.16	3.27356
55.38	3.8662
55.6	1.64692
55.82	6.88263
56.04	8.06537
56.26	5.07309
56.48	6.25103
56.7	4.04139
56.92	2.08927
57.14	5.39354
57.36	2.63163
57.58	4.62539
57.8	2.53662
58.02	15.0726
58.24	1.01773
58.46	7.24562
58.68	15.1261
58.9	6.22238
59.12	6.14932
59.34	6.21485
59.56	14.3722
59.78	5.62438
60	2.18047
60.22	4.96711
60.44	5.87364
60.66	12.7601
60.88	7.54323
61.1	5.42767
61.32	11.9026
61.54	10.5281
61.76	8.19649
61.98	4.48727
62.2	5.73353
62.42	19.3751
62.64	83.0088
62.86	44.5179
63.08	3.44243
63.3	6.37727
63.52	4.5369
63.74	2.72253
63.96	2.09483
64.18	2.05828
64.4	11.448
64.62	4.6308
64.84	5.69753
65.06	1.94788
65.28	0.638181
65.5	3.89227
65.72	6.94946
65.94	1.15281
66.16	4.09166
66.38	8.13937
66.6	4.96032
66.82	1.98134
67.04	0.182508
67.26	8.36225
67.48	2.68242
67.7	3.86338
67.92	1.98332
68.14	4.19217
68.36	12.4058
68.58	12.4284
68.8	22.3015
69.02	76.1781
69.24	33.4294
69.46	18.8223
69.68	2.41603
69.9	0.761745
70.12	4.10832
70.34	7.04295
70.56	17.1666
70.78	37.5745
71	142.854
71.22	75.1698
71.44	30.3289
71.66	17.3516
71.88	0.264044
72.1	18.9978
72.32	2.95465
72.54	6.6859
72.76	2.35592
72.98	2.97744
73.2	11.7002
73.42	1.94471
73.64	9.0579
73.86	5.97337
74.08	10.8053
74.3	7.83954
74.52	10.9934
74.74	7.26836
74.96	11.3886
75.18	6.36274
75.4	11.6799
75.62	15.24
75.84	5.1534
76.06	8.01267
76.28	5.76187
76.5	1.55424
76.72	4.37779
76.94	0.313636
77.16	7.48883
77.38	8.72308
77.6	4.17479
77.82	9.28352
78.04	8.64484
78.26	7.07263
78.48	10.5647
78.7	35.25
78.92	84.0284
79.14	66.9328
79.36	45.9834
79.58	4.12658
79.8	0.443264
80.02	5.2171
80.24	3.90154
80.46	4.62939
80.68	0.415139
80.9	4.05973
81.12	0.411079
81.34	7.93541
81.56	6.25579
81.78	7.11519
82	10.2803
82.22	2.3537
82.44	1.50249
82.66	6.39642
82.88	4.96843
83.1	1.73922
83.32	4.23991
83.54	3.7769
83.76	4.09328
83.98	0.681522
84.2	9.16983
84.42	9.81093
84.64	15.828
84.86	62.4374
85.08	20.5739
85.3	18.8421
85.52	13.5465
85.74	9.10097
85.96	2.49529
86.18	12.9182
86.4	11.33
86.62	10.8118
86.84	5.1601
87.06	6.39086
87.28	3.61436
87.5	8.62927
87.72	2.68822
87.94	6.25132
88.16	11.504
88.38	3.88096
88.6	11.4019
88.82	6.82222
89.04	7.08926
89.26	6.53079
89.48	9.89083
89.7	11.7137
89.92	8.62576
