Measurement: Powder, Xray Data XY Processed
Mineral: Galkhaite
Rruff sample: R070394
Ideal chemistry: (Hg^2+^_5_Cu^1+^)Cs^1+^As^3+^_4_S^2-^_12_
Locality: Getchell Mine, Adam Peak, Potosi District, Humboldt County, Nevada, USA
Source: Michael Scott
Description: Dark red cubes associated with quartz
Diffraction sample description: Powder
Cell parameters: a: 10.3906(2) b: 10.3906(2) c: 10.3906(2) alpha: 90 beta: 90 gamma: 90 volume: 1121.81(6) crystal system: cubic
x	intensity
5	0
5.22	11.0692
5.44	2.22804
5.66	6.81934
5.88	10.4984
6.1	15.0227
6.32	12.2655
6.54	19.1847
6.76	17.3624
6.98	7.58205
7.2	11.7592
7.42	15.368
7.64	21.5112
7.86	2.70833
8.08	5.30244
8.3	6.72383
8.52	9.13227
8.74	9.31389
8.96	4.12195
9.18	11.1632
9.4	8.35956
9.62	14.1925
9.84	0.708803
10.06	2.43938
10.28	3.003
10.5	2.44832
10.72	12.114
10.94	13.6391
11.16	3.29082
11.38	5.19196
11.6	0.137129
11.82	24.8971
12.04	347.147
12.26	8.6875
12.48	3.86335
12.7	0.453213
12.92	9.12409
13.14	9.72
13.36	10.4873
13.58	13.8405
13.8	5.39101
14.02	2.72711
14.24	7.31317
14.46	2.18455
14.68	6.99543
14.9	3.18258
15.12	5.95432
15.34	12.6027
15.56	5.13587
15.78	11.2858
16	8.40516
16.22	2.40197
16.44	10.583
16.66	3.44913
16.88	3.60796
17.1	30.1658
17.32	10.1539
17.54	8.1292
17.76	22.0824
17.98	2.01066
18.2	4.87102
18.42	13.0286
18.64	5.48069
18.86	16.3771
19.08	19.588
19.3	8.81057
19.52	2.14732
19.74	7.3148
19.96	5.3301
20.18	0.154606
20.4	0.355967
20.62	9.16662
20.84	97.2633
21.06	93.3456
21.28	9.97327
21.5	9.19715
21.72	7.22115
21.94	3.65302
22.16	2.48574
22.38	6.69188
22.6	10.0401
22.82	6.37398
23.04	7.70999
23.26	12.9199
23.48	13.685
23.7	5.30758
23.92	1.57396
24.14	10.7137
24.36	17.7084
24.58	1.57532
24.8	10.2564
25.02	3.19613
25.24	15.8699
25.46	0.569979
25.68	9.16917
25.9	16.8746
26.12	5.0928
26.34	3.93291
26.56	22.8602
26.78	17.9474
27	8.09523
27.22	28.1322
27.44	13.8261
27.66	13.0722
27.88	0.086452
28.1	5.67169
28.32	13.3755
28.54	3.97875
28.76	0.888239
28.98	17.356
29.2	1.55992
29.42	15.2492
29.64	64.8476
29.86	771.213
30.08	43.3918
30.3	7.8521
30.52	7.92756
30.74	2.81261
30.96	7.76145
31.18	1.76481
31.4	1.93108
31.62	8.23265
31.84	25.222
32.06	19.3
32.28	450.209
32.5	40.6385
32.72	5.52295
32.94	7.66161
33.16	11.9802
33.38	19.306
33.6	12.6598
33.82	8.83508
34.04	5.17269
34.26	18.4995
34.48	157.663
34.7	47.8242
34.92	13.9889
35.14	4.32047
35.36	0.548437
35.58	13.6474
35.8	11.7333
36.02	8.05575
36.24	6.40707
36.46	20.1981
36.68	107.125
36.9	29.1507
37.12	12.3914
37.34	21.4885
37.56	0.647186
37.78	7.66453
38	8.27867
38.22	2.06448
38.44	4.7923
38.66	16.9685
38.88	12.963
39.1	2.39107
39.32	11.3624
39.54	10.961
39.76	5.41463
39.98	18.2916
40.2	3.43936
40.42	10.1861
40.64	30.6506
40.86	44.8878
41.08	5.22636
41.3	15.2308
41.52	0.81465
41.74	1.88465
41.96	7.00623
42.18	10.0719
42.4	16.5385
42.62	31.0053
42.84	9.0013
43.06	10.1553
43.28	6.65677
43.5	5.88916
43.72	8.80313
43.94	11.8229
44.16	6.33603
44.38	52.3083
44.6	72.4997
44.82	2.02618
45.04	24.5123
45.26	13.54
45.48	12.794
45.7	10.8897
45.92	5.94467
46.14	4.46336
46.36	11.9837
46.58	16.4943
46.8	11.9439
47.02	1.86258
47.24	3.20123
47.46	3.15224
47.68	16.6043
47.9	119.898
48.12	35.1837
48.34	12.5321
48.56	10.215
48.78	7.99966
49	1.90297
49.22	6.10055
49.44	20.4619
49.66	255.29
49.88	53.2234
50.1	29.612
50.32	6.78441
50.54	3.5596
50.76	6.19874
50.98	8.32068
51.2	28.3966
51.42	16.3349
51.64	2.68398
51.86	13.6573
52.08	6.30282
52.3	9.89738
52.52	7.21484
52.74	5.67345
52.96	22.019
53.18	6.61268
53.4	11.4456
53.62	10.6959
53.84	0.019096
54.06	15.6939
54.28	19.5622
54.5	69.4164
54.72	16.7506
54.94	19.5428
55.16	2.47393
55.38	15.703
55.6	6.13459
55.82	6.50471
56.04	12.6836
56.26	19.0293
56.48	13.1996
56.7	1.228
56.92	12.6164
57.14	8.80812
57.36	17.7306
57.58	14.0949
57.8	9.67879
58.02	8.07395
58.24	11.6447
58.46	10.7347
58.68	8.94623
58.9	139.046
59.12	93.0312
59.34	13.0548
59.56	2.70529
59.78	0.038067
60	9.74826
60.22	11.6788
60.44	32.1117
60.66	10.4117
60.88	16.411
61.1	5.57289
61.32	3.46672
61.54	9.85559
61.76	32.2683
61.98	46.5328
62.2	8.59361
62.42	1.70936
62.64	7.35624
62.86	0.759722
63.08	14.7327
63.3	15.0337
63.52	10.1318
63.74	13.2131
63.96	13.2177
64.18	14.3554
64.4	4.54998
64.62	14.4338
64.84	6.87827
65.06	5.63345
65.28	12.6729
65.5	5.43624
65.72	7.40355
65.94	31.3956
66.16	41.1916
66.38	11.8664
66.6	1.74259
66.82	5.36877
67.04	6.47311
67.26	6.62829
67.48	4.83908
67.7	6.01703
67.92	0.213457
68.14	12.1614
68.36	2.81273
68.58	14.5721
68.8	6.54664
69.02	7.9218
69.24	3.23862
69.46	5.71982
69.68	11.1598
69.9	1.43829
70.12	6.45785
70.34	12.1589
70.56	4.90402
70.78	8.07303
71	8.54998
71.22	2.71003
71.44	30.3492
71.66	15.7664
71.88	7.17675
72.1	2.64447
72.32	5.46189
72.54	14.4661
72.76	36.3862
72.98	24.3998
73.2	4.17476
73.42	19.3666
73.64	9.58528
73.86	1.28312
74.08	9.79265
74.3	17.1454
74.52	11.8126
74.74	2.60702
74.96	4.82588
75.18	15.3998
75.4	8.47971
75.62	13.5052
75.84	1.44655
76.06	0.604393
76.28	12.4691
76.5	11.8484
76.72	31.7188
76.94	10.2591
77.16	3.34104
77.38	8.74965
77.6	10.533
77.82	0.632166
78.04	4.78099
78.26	11.5823
78.48	6.6727
78.7	7.29696
78.92	3.72811
79.14	10.928
79.36	15.2927
79.58	8.69324
79.8	7.67606
80.02	8.10328
80.24	9.89627
80.46	24.7428
80.68	17.7049
80.9	18.8395
81.12	10.1476
81.34	3.44341
81.56	8.35154
81.78	17.7601
82	19.1321
82.22	0.537247
82.44	4.72201
82.66	16.7867
82.88	14.1686
83.1	45.4984
83.32	23.0658
83.54	2.07205
83.76	15.4335
83.98	9.85083
84.2	14.8766
84.42	8.30672
84.64	4.43466
84.86	4.61379
85.08	12.6561
85.3	10.3613
85.52	0.142941
85.74	10.8001
85.96	15.447
86.18	9.17681
86.4	5.70473
86.62	3.84753
86.84	23.5967
87.06	12.6147
87.28	6.72736
87.5	12.2568
87.72	11.5014
87.94	4.7665
88.16	13.0013
88.38	22.1944
88.6	0.34691
88.82	4.96835
89.04	5.32481
89.26	10.2523
89.48	12.7453
89.7	13.6657
89.92	0.717512
