Measurement: Powder, Xray Data XY Processed
Mineral: Garronite-Ca
Rruff sample: R050281
Ideal chemistry: NaCa_2.5_(Si_10_Al_6_)O_32_14H_2_O
Locality: Pete's Point, Aneroid Lake, Wallowa County, Oregon, USA
Source: Marcus Origlieri
Description: White radiating crystal aggregates completely filling amygdules
Diffraction sample description: Powder
Measured chemistry: (Na_0.94_K_0.06_)_Σ=1_Ca_2.50_(Si_10.00_Al_6.00_)O_32_·13H_2_O
Cell parameters: a: 9.9433(8) b: 9.9433(8) c: 10.269(1) alpha: 90 beta: 90 gamma: 90 volume: 1015.3(0) crystal system: tetragonal
x	intensity
5	0
5.22	9.24925
5.44	11.4769
5.66	7.236
5.88	16.4847
6.1	19.7303
6.32	4.32106
6.54	6.48163
6.76	1.45293
6.98	0.622225
7.2	12.1807
7.42	1.7523
7.64	6.16154
7.86	6.74676
8.08	4.63274
8.3	10.0914
8.52	2.69714
8.74	9.11074
8.96	7.44771
9.18	11.8701
9.4	4.52907
9.62	1.01592
9.84	14.0443
10.06	1.11331
10.28	8.93152
10.5	5.81924
10.72	5.74315
10.94	6.28298
11.16	10.7705
11.38	13.3888
11.6	7.84694
11.82	2.40947
12.04	10.6887
12.26	47.5555
12.48	339.328
12.7	4.21127
12.92	7.07126
13.14	0.949619
13.36	11.0895
13.58	10.507
13.8	9.68658
14.02	9.86697
14.24	13.9642
14.46	4.50183
14.68	8.43913
14.9	14.4904
15.12	2.45745
15.34	4.31938
15.56	10.01
15.78	3.16754
16	10.1705
16.22	10.0578
16.44	10.8444
16.66	7.65947
16.88	9.04783
17.1	1.94895
17.32	12.7313
17.54	2.11359
17.76	48.3466
17.98	72.4391
18.2	6.31537
18.42	3.28347
18.64	3.67722
18.86	7.21157
19.08	4.68461
19.3	9.36829
19.52	9.49734
19.74	3.46385
19.96	4.14191
20.18	0.285182
20.4	8.44446
20.62	9.22536
20.84	0.986156
21.06	1.22131
21.28	33.4229
21.5	424.395
21.72	42.8391
21.94	21.085
22.16	2.66648
22.38	16.4413
22.6	2.23308
22.82	6.23372
23.04	8.79576
23.26	7.15863
23.48	2.1529
23.7	9.59034
23.92	4.79033
24.14	9.03504
24.36	5.89313
24.58	15.8123
24.8	1.9954
25.02	7.9174
25.24	10.0271
25.46	20.8641
25.68	18.9425
25.9	8.10614
26.12	2.19599
26.34	1.76511
26.56	7.59044
26.78	14.9532
27	2.68917
27.22	4.41644
27.44	45.4733
27.66	187.762
27.88	22.6456
28.1	24.6687
28.32	659.577
28.54	34.7806
28.76	15.6238
28.98	12.0045
29.2	9.40188
29.42	10.8048
29.64	11.5156
29.86	4.00983
30.08	11.1792
30.3	0.381557
30.52	8.12235
30.74	3.02643
30.96	13.1023
31.18	9.07633
31.4	0.711792
31.62	12.423
31.84	1.08286
32.06	9.84292
32.28	5.51757
32.5	6.13633
32.72	8.75777
32.94	24.3196
33.16	40.5374
33.38	170.126
33.6	97.5185
33.82	20.3821
34.04	1.39689
34.26	7.87201
34.48	4.50712
34.7	0.015942
34.92	35.034
35.14	13.5787
35.36	8.08478
35.58	4.90483
35.8	3.58744
36.02	4.54133
36.24	7.96099
36.46	8.18763
36.68	4.16453
36.9	2.13011
37.12	9.25236
37.34	2.20618
37.56	3.0313
37.78	3.6814
38	4.89075
38.22	6.66419
38.44	44.0286
38.66	12.0909
38.88	7.12634
39.1	12.1938
39.32	7.15909
39.54	5.1084
39.76	3.35808
39.98	2.43054
40.2	10.5484
40.42	12.3837
40.64	15.0473
40.86	8.01217
41.08	6.88568
41.3	2.82071
41.52	0.275283
41.74	5.64076
41.96	11.1548
42.18	13.2697
42.4	16.8418
42.62	2.63771
42.84	6.46615
43.06	3.59237
43.28	12.3467
43.5	3.20136
43.72	36.3775
43.94	12.5424
44.16	0.085848
44.38	2.04847
44.6	13.6858
44.82	8.65027
45.04	2.72148
45.26	6.5663
45.48	5.43464
45.7	34.5802
45.92	13.081
46.14	11.1363
46.36	0.960262
46.58	33.237
46.8	7.6526
47.02	8.92091
47.24	9.04592
47.46	7.27999
47.68	10.4818
47.9	1.99882
48.12	0.057558
48.34	12.0085
48.56	0.960571
48.78	3.02902
49	11.5181
49.22	9.39313
49.44	2.45381
49.66	0.673903
49.88	7.26807
50.1	23.0554
50.32	14.6397
50.54	5.86775
50.76	1.42789
50.98	13.2419
51.2	49.122
51.42	9.11157
51.64	0.955714
51.86	2.4753
52.08	9.55015
52.3	11.635
52.52	18.8537
52.74	5.13303
52.96	3.42755
53.18	12.9963
53.4	20.29
53.62	6.52304
53.84	2.76866
54.06	5.73769
54.28	3.64592
54.5	1.77488
54.72	18.3648
54.94	5.50237
55.16	9.65924
55.38	21.5462
55.6	18.3067
55.82	5.37652
56.04	4.47938
56.26	1.49595
56.48	7.56893
56.7	1.9768
56.92	16.2722
57.14	11.9978
57.36	12.0374
57.58	0.845143
57.8	9.98883
58.02	3.99947
58.24	0.83628
58.46	1.15826
58.68	5.17112
58.9	6.39677
59.12	7.12212
59.34	2.04348
59.56	12.9419
59.78	11.235
60	3.14067
60.22	8.21696
60.44	0.489135
60.66	4.37808
60.88	4.41394
61.1	6.50021
61.32	2.59562
61.54	3.57246
61.76	4.61587
61.98	3.59242
62.2	5.30262
62.42	2.30451
62.64	7.05554
62.86	2.93316
63.08	14.2564
63.3	13.3055
63.52	18.5828
63.74	5.61747
63.96	18.0429
64.18	11.9664
64.4	9.04675
64.62	8.51363
64.84	4.50704
65.06	5.43456
65.28	8.22481
65.5	13.2161
65.72	10.3046
65.94	14.6401
66.16	12.0873
66.38	7.60102
66.6	1.37169
66.82	2.86449
67.04	8.47918
67.26	19.2893
67.48	19.0221
67.7	8.01702
67.92	7.74631
68.14	3.48848
68.36	4.611
68.58	1.20908
68.8	7.89241
69.02	10.0238
69.24	18.3698
69.46	5.5956
69.68	1.93987
69.9	4.88334
70.12	5.00497
70.34	7.32291
70.56	7.54424
70.78	0.203726
71	0.941289
71.22	3.08087
71.44	0.798276
71.66	10.1728
71.88	4.22616
72.1	0.087337
72.32	7.09238
72.54	7.05952
72.76	3.96474
72.98	3.05118
73.2	1.00659
73.42	0.018766
73.64	5.16425
73.86	8.1336
74.08	9.04503
74.3	2.03035
74.52	7.0543
74.74	1.74838
74.96	11.9831
75.18	13.8866
75.4	9.13347
75.62	1.61133
75.84	4.48477
76.06	2.51019
76.28	0.100892
76.5	8.52273
76.72	0.717806
76.94	7.59505
77.16	4.90813
77.38	2.83264
77.6	0.035306
77.82	1.86602
78.04	9.74815
78.26	3.74363
78.48	2.6184
78.7	10.1652
78.92	7.85295
79.14	6.76289
79.36	8.05614
79.58	13.1132
79.8	11.085
80.02	12.0205
80.24	7.14942
80.46	0.64455
80.68	5.42376
80.9	7.66196
81.12	2.78588
81.34	3.0929
81.56	4.21984
81.78	6.09401
82	10.2027
82.22	3.2813
82.44	10.3454
82.66	1.42372
82.88	5.33182
83.1	2.39138
83.32	6.42812
83.54	0.710198
83.76	2.62245
83.98	3.57787
84.2	1.50929
84.42	5.67142
84.64	8.75712
84.86	6.9714
85.08	1.01069
85.3	5.29286
85.52	5.39603
85.74	1.39599
85.96	1.25097
86.18	5.39611
86.4	2.51711
86.62	6.57687
86.84	0.604157
87.06	0.745972
87.28	6.68261
87.5	1.78382
87.72	2.67419
87.94	10.8378
88.16	5.97224
88.38	12.1739
88.6	10.1356
88.82	8.12079
89.04	8.99565
89.26	0.057426
89.48	6.94834
89.7	8.62817
89.92	4.79887
