Measurement: Powder, Xray Data XY Processed
Mineral: Gaudefroyite
Rruff sample: R050675
Ideal chemistry: Ca_4_Mn^3+^_3_(BO_3_)_3_(CO_3_)O_3_
Locality: Wessels mine, Cape Province, South Africa
Source: University of Arizona Mineral Museum
Description: Black hexagonal stubby dipyramidal crystals
Diffraction sample description: Powder
Measured chemistry: Ca_4.00_(Mn^3+^_2.98_[box]_0.02_)_Σ=3_(BO_3_)_3_(CO_3_)(O_2.94_(OH)_0.06_)_Σ=3_ ; B, C, H not measured but estimated by charge balance.
Cell parameters: a: 10.6015(4) b: 10.6015(4) c: 5.8854(8) alpha: 90. beta: 90. gamma: 120. volume: 572.86(7) crystal system: hexagonal
x	intensity
5	0
5.22	18.496
5.44	8.418
5.66	9.271
5.88	8.16
6.1	17.126
6.32	10.294
6.54	3.354
6.76	11.59
6.98	1.947
7.2	15.231
7.42	15.881
7.64	11.824
7.86	11.973
8.08	12.207
8.3	12.548
8.52	7.523
8.74	0.057
8.96	0.868
9.18	2.578
9.4	2.659
9.62	29.992
9.84	0.529
10.06	0.539
10.28	12.451
10.5	8.204
10.72	18.593
10.94	0.065
11.16	16.391
11.38	13.136
11.6	8.939
11.82	3.681
12.04	1.516
12.26	4.154
12.48	11.956
12.7	5.837
12.92	9.27
13.14	7.727
13.36	0.028
13.58	12.01
13.8	9.072
14.02	5.668
14.24	1.191
14.46	15.021
14.68	1.358
14.9	8.19
15.12	0.226
15.34	1.036
15.56	4.403
15.78	5.217
16	8.328
16.22	4.82
16.44	7.348
16.66	15.728
16.88	0.893
17.1	5.091
17.32	8.391
17.54	17.439
17.76	16.521
17.98	33.368
18.2	4.247
18.42	16.847
18.64	10.375
18.86	11.406
19.08	22.688
19.3	14.673
19.52	25.644
19.74	10.97
19.96	15.736
20.18	14.722
20.4	0.108
20.62	8.059
20.84	0.036
21.06	8.59
21.28	4.603
21.5	9.121
21.72	3.203
21.94	1.775
22.16	16.814
22.38	6.096
22.6	2.036
22.82	0.27
23.04	0.989
23.26	11.89
23.48	7.818
23.7	11.423
23.92	7.455
24.14	9.393
24.36	18.261
24.58	5.956
24.8	11.523
25.02	10.766
25.24	4.844
25.46	7.364
25.68	18.523
25.9	10.706
26.12	6.245
26.34	3.415
26.56	1.108
26.78	4.337
27	10.979
27.22	11.35
27.44	1.301
27.66	6.316
27.88	6.347
28.1	6.836
28.32	7.081
28.54	13.938
28.76	0.842
28.98	6.009
29.2	26.913
29.42	10.629
29.64	12.095
29.86	20.649
30.08	25.694
30.3	2.482
30.52	2.463
30.74	19.183
30.96	3.156
31.18	14.561
31.4	4.252
31.62	9.691
31.84	1.298
32.06	7.293
32.28	7.499
32.5	2.409
32.72	18.116
32.94	20.82
33.16	19.852
33.38	3.978
33.6	1.132
33.82	70.69
34.04	16.211
34.26	3.4
34.48	7.674
34.7	0.405
34.92	0.564
35.14	4.418
35.36	25.217
35.58	7.881
35.8	3.481
36.02	7.235
36.24	40.073
36.46	71.106
36.68	0.149
36.9	10.655
37.12	6.938
37.34	22.792
37.56	13.131
37.78	6.375
38	7.305
38.22	1.329
38.44	1.529
38.66	25.445
38.88	1.187
39.1	6.156
39.32	16.525
39.54	8.734
39.76	5.027
39.98	12.184
40.2	34.721
40.42	18.829
40.64	1.104
40.86	0.547
41.08	0.425
41.3	6.02
41.52	10.234
41.74	8.035
41.96	5.578
42.18	15.412
42.4	19.736
42.62	10.676
42.84	10.195
43.06	13.784
43.28	20.505
43.5	11.317
43.72	14.586
43.94	3.624
44.16	11.667
44.38	11.97
44.6	0.283
44.82	6.842
45.04	0.712
45.26	9.245
45.48	17.067
45.7	2.888
45.92	0.532
46.14	9.547
46.36	10.297
46.58	8.452
46.8	6.116
47.02	8.088
47.24	24.493
47.46	24.639
47.68	0.549
47.9	8.607
48.12	27.89
48.34	0.232
48.56	12.949
48.78	5.641
49	1.45
49.22	1.902
49.44	4.584
49.66	14.971
49.88	12.569
50.1	13.278
50.32	12.713
50.54	38.568
50.76	20.577
50.98	4.392
51.2	1.64
51.42	5.431
51.64	2.969
51.86	2.319
52.08	17.795
52.3	10.897
52.52	5.626
52.74	12.006
52.96	11.08
53.18	4.179
53.4	20.151
53.62	12.394
53.84	11.03
54.06	9.21
54.28	12.257
54.5	5.508
54.72	13.485
54.94	4.733
55.16	15.441
55.38	1.293
55.6	10.645
55.82	16.447
56.04	3.671
56.26	7.931
56.48	5.204
56.7	1.362
56.92	4.712
57.14	0.839
57.36	7.678
57.58	0.54
57.8	0.742
58.02	25.051
58.24	21.057
58.46	4.029
58.68	5.424
58.9	5.218
59.12	0.106
59.34	4.85
59.56	10.586
59.78	0.722
60	8.541
60.22	4.82
60.44	1.217
60.66	18.736
60.88	5.45
61.1	1.854
61.32	14.785
61.54	6.594
61.76	2.773
61.98	26.489
62.2	26.023
62.42	15.729
62.64	15.042
62.86	10.486
63.08	4.769
63.3	12.696
63.52	26.938
63.74	14.839
63.96	8.884
64.18	5.555
64.4	8.932
64.62	20.213
64.84	12.397
65.06	12.731
65.28	10.356
65.5	10.843
65.72	3.246
65.94	1.371
66.16	14.883
66.38	15.137
66.6	10.723
66.82	6.156
67.04	5.604
67.26	0.744
67.48	15.517
67.7	9.098
67.92	4.77
68.14	12.391
68.36	8.056
68.58	10.729
68.8	4.792
69.02	12.342
69.24	3.669
69.46	16.038
69.68	3.91
69.9	3.806
70.12	3.693
70.34	12.801
70.56	0.995
70.78	8.434
71	13.676
71.22	1.288
71.44	4.836
71.66	11.298
71.88	14.83
72.1	1.323
72.32	15.995
72.54	1
72.76	30.593
72.98	5.935
73.2	2.524
73.42	8.911
73.64	23.661
73.86	20.229
74.08	9.819
74.3	4.108
74.52	11.657
74.74	6.243
74.96	2.932
75.18	3.351
75.4	30.105
75.62	6.218
75.84	8.835
76.06	2.717
76.28	3.814
76.5	6.76
76.72	14.032
76.94	7.251
77.16	5.836
77.38	4.416
77.6	13.612
77.82	10.018
78.04	13.421
78.26	6.517
78.48	12.069
78.7	25.18
78.92	15.754
79.14	12.682
79.36	4.553
79.58	15.701
79.8	0.635
80.02	15.672
80.24	8.411
80.46	6.931
80.68	4.698
80.9	10.676
81.12	3.38
81.34	9.759
81.56	3.386
81.78	4.44
82	16.5
82.22	5.542
82.44	11.245
82.66	5.899
82.88	9.867
83.1	7.868
83.32	10.081
83.54	15.166
83.76	7.965
83.98	10.391
84.2	3.118
84.42	2.181
84.64	19.455
84.86	16.773
85.08	11.947
85.3	10.037
85.52	20.974
85.74	6.556
85.96	8.494
86.18	1.718
86.4	0.04
86.62	16.403
86.84	16.305
87.06	15.28
87.28	0.909
87.5	6.169
87.72	12.199
87.94	10.376
88.16	6.366
88.38	1.413
88.6	8.335
88.82	9.363
89.04	27.333
89.26	8.585
89.48	17.124
89.7	8.932
89.92	12.206
