Measurement: Powder, Xray Data XY Processed
Mineral: Glauberite
Rruff sample: R070322
Ideal chemistry: Na_2_Ca(S^6+^O_4_)_2_
Locality: Salton Sea, Imperial County, California, USA
Source: James Shigley
Description: Colorless tabular crystal
Diffraction sample description: Powder
Cell parameters: a: 10.1307(4) b: 8.3030(2) c: 8.5324(2) alpha: 90 beta: 112.192(3) gamma: 90 volume: 664.54(3) crystal system: monoclinic
x	intensity
5	0
5.22	9.48294
5.44	2.56833
5.66	2.42846
5.88	5.55214
6.1	3.98717
6.32	13.0657
6.54	12.1487
6.76	11.643
6.98	9.43023
7.2	18.9621
7.42	6.81802
7.64	6.48706
7.86	14.1431
8.08	0.780996
8.3	5.15787
8.52	8.69077
8.74	4.77715
8.96	5.20592
9.18	5.4399
9.4	3.34126
9.62	1.13746
9.84	4.99684
10.06	7.62164
10.28	11.9172
10.5	4.19155
10.72	1.56261
10.94	12.6899
11.16	7.09624
11.38	2.21431
11.6	2.26545
11.82	6.47551
12.04	6.39239
12.26	8.26018
12.48	3.96162
12.7	2.06616
12.92	7.94906
13.14	1.85051
13.36	6.71313
13.58	12.4754
13.8	0.457397
14.02	6.54437
14.24	184.433
14.46	4.56282
14.68	5.60469
14.9	2.71774
15.12	0.690903
15.34	8.21116
15.56	4.56622
15.78	14.7384
16	11.8941
16.22	3.25361
16.44	3.26527
16.66	8.33352
16.88	6.29982
17.1	5.45231
17.32	4.2947
17.54	6.50956
17.76	8.11538
17.98	2.7754
18.2	15.5907
18.42	7.53398
18.64	8.28424
18.86	18.0755
19.08	6.89628
19.3	4.6179
19.52	4.43535
19.74	1.83925
19.96	6.4415
20.18	37.4211
20.4	18.4152
20.62	2.84124
20.84	10.6629
21.06	11.5482
21.28	17.4161
21.5	11.2798
21.72	11.1213
21.94	6.83244
22.16	6.26191
22.38	29.0703
22.6	238.981
22.82	5.94108
23.04	7.87889
23.26	10.288
23.48	111.507
23.7	4.92723
23.92	7.41971
24.14	4.74831
24.36	2.00568
24.58	3.24666
24.8	2.63766
25.02	5.77382
25.24	10.276
25.46	11.1998
25.68	5.7539
25.9	15.0614
26.12	0.915277
26.34	0.58039
26.56	4.1302
26.78	6.5777
27	1.03435
27.22	5.25329
27.44	0.544949
27.66	0.202262
27.88	0.603251
28.1	391.308
28.32	14.598
28.54	411.981
28.76	171.82
28.98	15.0388
29.2	8.48015
29.42	1.54686
29.64	95.5418
29.86	13.7546
30.08	7.87741
30.3	2.89749
30.52	31.6491
30.74	1.41438
30.96	8.42507
31.18	37.599
31.4	30.4496
31.62	9.09413
31.84	213.376
32.06	3.57082
32.28	3.45506
32.5	4.70885
32.72	5.02765
32.94	3.18769
33.16	8.71535
33.38	41.1246
33.6	97.9863
33.82	10.0488
34.04	10.6282
34.26	4.16655
34.48	1.4055
34.7	0.867689
34.92	1.48574
35.14	10.6231
35.36	5.79047
35.58	1.34221
35.8	1.6207
36.02	12.7492
36.24	22.649
36.46	32.471
36.68	2.26727
36.9	21.1508
37.12	10.8842
37.34	7.46247
37.56	2.57968
37.78	2.52778
38	4.58151
38.22	8.91641
38.44	37.8694
38.66	2.162
38.88	12.4211
39.1	0.189484
39.32	1.4687
39.54	3.74233
39.76	0.799312
39.98	4.79046
40.2	1.60513
40.42	7.94857
40.64	11.7951
40.86	7.62332
41.08	11.2008
41.3	32.725
41.52	1.494
41.74	5.07662
41.96	4.58121
42.18	31.8217
42.4	3.85731
42.62	45.5691
42.84	5.83084
43.06	18.1984
43.28	3.79149
43.5	4.45785
43.72	26.0668
43.94	10.0357
44.16	10.5273
44.38	12.1175
44.6	86.6034
44.82	1.07603
45.04	15.992
45.26	91.1402
45.48	31.0738
45.7	5.24624
45.92	6.31513
46.14	6.07361
46.36	42.5685
46.58	15.1594
46.8	2.16778
47.02	2.06858
47.24	0.849144
47.46	5.50142
47.68	79.0649
47.9	22.5747
48.12	10.3518
48.34	2.22163
48.56	4.90255
48.78	3.91264
49	6.16364
49.22	2.31653
49.44	11.2288
49.66	23.818
49.88	13.5567
50.1	6.31869
50.32	1.07048
50.54	13.9365
50.76	18.2525
50.98	7.51165
51.2	20.7125
51.42	70.617
51.64	6.88831
51.86	8.50534
52.08	4.14657
52.3	18.612
52.52	10.1686
52.74	10.4665
52.96	5.69133
53.18	2.44923
53.4	5.26347
53.62	6.45728
53.84	8.25685
54.06	3.64879
54.28	10.1488
54.5	13.4741
54.72	7.39245
54.94	25.8739
55.16	0.418227
55.38	0.002015
55.6	19.8129
55.82	1.7347
56.04	2.34508
56.26	15.3437
56.48	41.8178
56.7	51.3158
56.92	18.9414
57.14	33.8431
57.36	15.1511
57.58	7.62299
57.8	0.108635
58.02	2.10467
58.24	4.3783
58.46	2.41738
58.68	3.74828
58.9	2.53466
59.12	19.5924
59.34	3.33732
59.56	7.28076
59.78	6.2797
60	3.82369
60.22	11.1768
60.44	7.18232
60.66	11.2511
60.88	12.6714
61.1	15.8019
61.32	14.4868
61.54	4.40301
61.76	6.7786
61.98	8.88143
62.2	3.80968
62.42	11.7873
62.64	0.173108
62.86	3.85902
63.08	0.184508
63.3	9.70112
63.52	8.4313
63.74	5.25193
63.96	2.96168
64.18	5.46305
64.4	9.18285
64.62	24.3338
64.84	9.24742
65.06	7.04597
65.28	12.9086
65.5	12.3021
65.72	1.43899
65.94	8.58248
66.16	8.84869
66.38	2.01498
66.6	7.31449
66.82	2.72675
67.04	10.7202
67.26	2.25221
67.48	9.72697
67.7	2.05905
67.92	5.38912
68.14	2.56075
68.36	6.73322
68.58	4.94897
68.8	6.0762
69.02	2.47223
69.24	7.42626
69.46	6.27829
69.68	3.97684
69.9	11.7759
70.12	1.72718
70.34	8.53624
70.56	9.69962
70.78	8.98957
71	5.75412
71.22	10.6316
71.44	8.1557
71.66	5.10584
71.88	7.99739
72.1	6.8434
72.32	1.75883
72.54	20.7055
72.76	12.1096
72.98	11.639
73.2	5.28638
73.42	10.2143
73.64	7.33449
73.86	7.46757
74.08	6.55506
74.3	2.85296
74.52	6.95628
74.74	13.0041
74.96	1.92074
75.18	4.73746
75.4	4.03161
75.62	14.0903
75.84	14.2076
76.06	5.09411
76.28	3.9455
76.5	10.8141
76.72	7.55091
76.94	2.84873
77.16	4.90619
77.38	12.7482
77.6	3.74766
77.82	10.525
78.04	10.5271
78.26	6.46354
78.48	1.3599
78.7	7.76242
78.92	7.24442
79.14	6.20089
79.36	11.6808
79.58	11.8696
79.8	7.82407
80.02	2.87222
80.24	10.199
80.46	5.0628
80.68	7.89641
80.9	6.62886
81.12	9.37678
81.34	4.8536
81.56	21.51
81.78	9.99521
82	7.09057
82.22	2.91948
82.44	10.8805
82.66	5.66726
82.88	2.81009
83.1	8.00032
83.32	7.18986
83.54	4.7564
83.76	4.93172
83.98	4.14866
84.2	7.54345
84.42	8.42271
84.64	12.5077
84.86	3.45582
85.08	7.29004
85.3	8.2268
85.52	8.09572
85.74	8.067
85.96	11.9626
86.18	21.8597
86.4	7.56628
86.62	5.2899
86.84	1.16355
87.06	2.16988
87.28	8.4482
87.5	13.6632
87.72	3.89356
87.94	10.0892
88.16	9.14715
88.38	1.97056
88.6	7.44458
88.82	5.41348
89.04	8.68376
89.26	9.76184
89.48	6.71618
89.7	0.95741
89.92	11.5227
