Measurement: Powder, Xray Data XY Processed
Mineral: Gmelinite-Na
Rruff sample: R070354
Ideal chemistry: Na_4_(Si_8_Al_4_)O_24_11H_2_O
Locality: Island of Finders, Australia
Source: Michael Scott
Description: Salmon-pink, striated vitreous crystals associated with colorless trapezohedral analcime and colorless tetragonal prisms of natrolite
Diffraction sample description: Powder, mixed with chabazite; a: 13.7815(4) c: 15.0380(7)
Cell parameters: a: 13.7491(3) b: 13.7491(3) c: 10.0583(7) alpha: 90 beta: 90 gamma: 120 volume: 1646.6(1) crystal system: hexagonal
x	intensity
5	0
5.22	1.74665
5.44	9.83493
5.66	5.00507
5.88	7.69493
6.1	7.71617
6.32	11.8056
6.54	2.12221
6.76	11.2397
6.98	17.6563
7.2	26.1261
7.42	344.403
7.64	16.8727
7.86	10.1187
8.08	6.19717
8.3	11.2257
8.52	6.15904
8.74	6.47309
8.96	2.58663
9.18	20.1154
9.4	389.281
9.62	14.715
9.84	2.55913
10.06	7.78182
10.28	16.3372
10.5	8.82104
10.72	12.3564
10.94	4.85808
11.16	7.6465
11.38	8.58171
11.6	21.566
11.82	2.0179
12.04	3.06892
12.26	11.7882
12.48	19.0308
12.7	8.98955
12.92	73.7877
13.14	3.187
13.36	8.36497
13.58	2.53693
13.8	14.6799
14.02	15.1632
14.24	7.70497
14.46	13.7661
14.68	27.3191
14.9	24.7774
15.12	13.9043
15.34	6.38301
15.56	1.22605
15.78	13.1236
16	235.538
16.22	1.93208
16.44	18.0302
16.66	5.24496
16.88	11.9354
17.1	16.5696
17.32	97.1013
17.54	34.3349
17.76	108.195
17.98	8.06937
18.2	26.2457
18.42	13.3537
18.64	9.39422
18.86	10.1921
19.08	22.3383
19.3	21.6211
19.52	5.45927
19.74	48.3911
19.96	0.504738
20.18	20.4525
20.4	24.0687
20.62	237.135
20.84	15.3529
21.06	5.39349
21.28	6.30596
21.5	11.9145
21.72	64.4926
21.94	18.1382
22.16	12.0805
22.38	52.5187
22.6	10.8996
22.82	12.1657
23.04	121.776
23.26	22.9491
23.48	3.36547
23.7	2.4891
23.92	15.6128
24.14	13.5459
24.36	7.68398
24.58	9.58514
24.8	305.696
25.02	13.2204
25.24	9.15374
25.46	11.7397
25.68	4.96932
25.9	123.863
26.12	11.87
26.34	0.490387
26.56	1.83845
26.78	2.2674
27	17.2813
27.22	7.32412
27.44	12.2753
27.66	85.6122
27.88	3.80176
28.1	41.2148
28.32	6.04448
28.54	7.70566
28.76	15.6719
28.98	7.41172
29.2	15.0829
29.42	0.73349
29.64	1.4834
29.86	21.8289
30.08	73.5783
30.3	12.8031
30.52	657.215
30.74	42.0467
30.96	194.608
31.18	13.7563
31.4	86.2684
31.62	31.2939
31.84	8.26052
32.06	9.98154
32.28	11.4057
32.5	8.83732
32.72	6.10136
32.94	14.0126
33.16	5.42966
33.38	90.001
33.6	12.6125
33.82	0.431629
34.04	3.05841
34.26	5.71423
34.48	89.6528
34.7	10.9541
34.92	22.1576
35.14	11.8477
35.36	12.7376
35.58	13.1091
35.8	63.7907
36.02	20.3265
36.24	9.50844
36.46	13.2905
36.68	12.8069
36.9	6.39431
37.12	12.7683
37.34	7.96212
37.56	12.5483
37.78	8.20431
38	1.31757
38.22	18.0106
38.44	9.82423
38.66	3.39487
38.88	15.5627
39.1	0.608376
39.32	20.1885
39.54	9.1939
39.76	1.3846
39.98	4.81221
40.2	6.44544
40.42	4.79638
40.64	10.3632
40.86	12.7769
41.08	15.6189
41.3	4.99029
41.52	8.0967
41.74	2.68216
41.96	0.238365
42.18	10.9092
42.4	4.89247
42.62	23.7327
42.84	0.480618
43.06	2.64066
43.28	41.62
43.5	31.7915
43.72	8.55893
43.94	18.4379
44.16	8.33801
44.38	11.8014
44.6	11.3943
44.82	15.4457
45.04	20.4946
45.26	19.261
45.48	0.490335
45.7	3.08926
45.92	10.1375
46.14	5.25966
46.36	12.4635
46.58	20.2832
46.8	6.77388
47.02	11.1231
47.24	15.5742
47.46	10.3425
47.68	33.4483
47.9	12.7226
48.12	4.06535
48.34	1.65346
48.56	4.59642
48.78	14.6717
49	24.3788
49.22	10.0722
49.44	3.11559
49.66	6.71415
49.88	17.9304
50.1	1.23258
50.32	9.49004
50.54	62.5058
50.76	17.933
50.98	12.8594
51.2	23.6629
51.42	2.50983
51.64	13.5479
51.86	14.8117
52.08	3.9598
52.3	11.0026
52.52	15.071
52.74	11.9143
52.96	15.2635
53.18	34.3785
53.4	14.2332
53.62	1.39935
53.84	8.17034
54.06	22.1297
54.28	12.1385
54.5	7.50791
54.72	10.5428
54.94	19.4666
55.16	5.68316
55.38	1.06945
55.6	3.00823
55.82	31.2203
56.04	22.7154
56.26	18.9797
56.48	9.50436
56.7	1.47413
56.92	0.886902
57.14	5.42967
57.36	1.03785
57.58	9.48914
57.8	5.42746
58.02	11.5102
58.24	1.24869
58.46	1.75153
58.68	11.7044
58.9	3.86122
59.12	4.41103
59.34	31.5739
59.56	2.54377
59.78	1.63849
60	5.97312
60.22	1.98327
60.44	5.91415
60.66	9.13284
60.88	24.1276
61.1	28.1155
61.32	2.12318
61.54	7.64492
61.76	6.62134
61.98	2.52596
62.2	0.801168
62.42	6.91032
62.64	18.1854
62.86	15.4297
63.08	5.34499
63.3	2.31159
63.52	20.467
63.74	13.1574
63.96	6.14793
64.18	4.32017
64.4	4.38387
64.62	7.2836
64.84	1.75963
65.06	7.03361
65.28	1.86082
65.5	5.70495
65.72	22.2215
65.94	21.0378
66.16	12.3231
66.38	6.42087
66.6	23.3296
66.82	8.28896
67.04	2.37168
67.26	12.6907
67.48	12.1569
67.7	2.28545
67.92	13.4163
68.14	4.40428
68.36	3.62816
68.58	7.37655
68.8	27.7218
69.02	15.6121
69.24	1.05275
69.46	3.74833
69.68	11.1417
69.9	6.87981
70.12	14.705
70.34	11.5174
70.56	10.0887
70.78	5.1021
71	15.1498
71.22	14.8627
71.44	5.03148
71.66	7.414
71.88	10.1177
72.1	13.1092
72.32	1.40365
72.54	1.73326
72.76	6.02538
72.98	16.0794
73.2	11.0479
73.42	9.93159
73.64	3.05526
73.86	16.0561
74.08	6.18026
74.3	3.56285
74.52	12.9683
74.74	8.20868
74.96	6.15321
75.18	8.6122
75.4	8.63009
75.62	1.74344
75.84	0.822107
76.06	3.08567
76.28	5.20708
76.5	13.5184
76.72	11.6561
76.94	10.6932
77.16	0.101974
77.38	10.9893
77.6	13.0616
77.82	1.15819
78.04	8.21839
78.26	6.20291
78.48	4.34035
78.7	2.27943
78.92	10.14
79.14	14.2598
79.36	8.68316
79.58	10.3862
79.8	12.736
80.02	12.6035
80.24	12.5997
80.46	4.88623
80.68	9.14516
80.9	1.05841
81.12	14.0392
81.34	2.07063
81.56	8.12313
81.78	2.04311
82	4.46157
82.22	8.47299
82.44	7.69945
82.66	5.69246
82.88	8.67014
83.1	9.44515
83.32	10.2858
83.54	5.45549
83.76	8.75797
83.98	3.76705
84.2	13.1117
84.42	4.28577
84.64	21.4263
84.86	14.3681
85.08	5.47082
85.3	8.48446
85.52	9.19068
85.74	5.34044
85.96	7.91076
86.18	2.95467
86.4	10.0456
86.62	13.6832
86.84	0.003079
87.06	7.12155
87.28	4.23893
87.5	7.27231
87.72	6.2925
87.94	8.01494
88.16	1.85851
88.38	14.7393
88.6	2.77732
88.82	10.6999
89.04	3.54875
89.26	1.40791
89.48	11.6364
89.7	9.50272
89.92	0.731013
