Measurement: Powder, Xray Data XY Processed
Mineral: Gmelinite-Na
Rruff sample: R050371
Ideal chemistry: Na_4_(Si_8_Al_4_)O_24_11H_2_O
Locality: Cairns Bay, Flinders Range, Australia
Source: Eugene Schlepp
Description: Colorless to pink crystals lining a basalt vug
Diffraction sample description: Powder
Measured chemistry: Na_3.81_(Si_8.13_Al_3.88_)O_24_Â·4.27H_2_O
Cell parameters: a: 13.7513(4) b: 13.7513(4) c: 10.0688(8) alpha: 90. beta: 90. gamma: 120. volume: 1648.9(1) crystal system: hexagonal
x	intensity
5	0
5.22	7.56789
5.44	6.14116
5.66	12.056
5.88	10.3525
6.1	8.02159
6.32	1.94314
6.54	17.8324
6.76	14.7927
6.98	2.77805
7.2	41.8095
7.42	886.48
7.64	1.44684
7.86	10.1259
8.08	13.5892
8.3	8.5788
8.52	3.89051
8.74	5.99388
8.96	1.01672
9.18	12.0057
9.4	10.8033
9.62	1.93906
9.84	6.59685
10.06	7.62515
10.28	5.92337
10.5	5.44589
10.72	6.27687
10.94	8.02031
11.16	8.67075
11.38	24.7964
11.6	33.36
11.82	4.82323
12.04	10.676
12.26	11.3148
12.48	0.24078
12.7	8.09894
12.92	162.25
13.14	2.46217
13.36	7.39647
13.58	6.85969
13.8	6.60647
14.02	4.07744
14.24	2.116
14.46	3.99494
14.68	1.05334
14.9	96.6105
15.12	2.46487
15.34	11.7975
15.56	10.9862
15.78	125.168
16	14.964
16.22	12.9477
16.44	1.45264
16.66	0.520971
16.88	5.56311
17.1	10.584
17.32	186.495
17.54	23.0717
17.76	17.5518
17.98	5.38309
18.2	16.3357
18.42	5.28018
18.64	7.22315
18.86	2.08426
19.08	7.11749
19.3	4.84668
19.52	47.8472
19.74	239.85
19.96	16.2791
20.18	8.21344
20.4	1.78436
20.62	15.0768
20.84	2.95451
21.06	7.8584
21.28	10.6122
21.5	21.7476
21.72	171.493
21.94	7.4012
22.16	1.74384
22.38	27.6238
22.6	2.96648
22.82	4.18301
23.04	0.186688
23.26	16.116
23.48	7.5109
23.7	1.61925
23.92	7.82094
24.14	20.6308
24.36	16.9926
24.58	6.99386
24.8	12.9161
25.02	2.22067
25.24	10.2003
25.46	5.11205
25.68	8.44791
25.9	179.752
26.12	27.9468
26.34	16.235
26.56	10.1184
26.78	7.64691
27	50.9188
27.22	1.96385
27.44	6.00792
27.66	163.935
27.88	10.1039
28.1	3.43984
28.32	3.17954
28.54	6.86647
28.76	13.5556
28.98	6.07954
29.2	5.52589
29.42	12.5773
29.64	6.82897
29.86	22.6041
30.08	259.067
30.3	2.32701
30.52	93.1747
30.74	14.2605
30.96	8.75027
31.18	13.2141
31.4	232.781
31.62	13.3113
31.84	4.05056
32.06	6.56735
32.28	1.72476
32.5	0.569126
32.72	6.29761
32.94	0.490625
33.16	14.3092
33.38	151.697
33.6	15.9583
33.82	10.9952
34.04	11.1483
34.26	8.61642
34.48	96.0205
34.7	1.67647
34.92	21.279
35.14	10.3602
35.36	17.9743
35.58	8.35688
35.8	28.0188
36.02	13.107
36.24	2.53834
36.46	2.84989
36.68	7.71028
36.9	9.89723
37.12	10.9849
37.34	9.28183
37.56	5.3873
37.78	10.6288
38	13.0285
38.22	12.8008
38.44	3.81263
38.66	1.84663
38.88	18.9225
39.1	9.88302
39.32	4.83162
39.54	11.9544
39.76	11.7828
39.98	12.4672
40.2	4.23729
40.42	10.277
40.64	26.4941
40.86	12.5346
41.08	10.37
41.3	2.31715
41.52	11.2137
41.74	9.10121
41.96	18.4752
42.18	7.20192
42.4	5.02578
42.62	8.48084
42.84	13.4617
43.06	9.31238
43.28	16.3359
43.5	22.4313
43.72	9.60124
43.94	11.0007
44.16	24.6179
44.38	3.56572
44.6	9.84055
44.82	9.86089
45.04	8.9189
45.26	1.76732
45.48	13.2207
45.7	3.10134
45.92	3.91213
46.14	10.9929
46.36	6.57301
46.58	5.88338
46.8	13.3841
47.02	7.27808
47.24	6.40143
47.46	2.30898
47.68	77.9399
47.9	28.2024
48.12	4.56333
48.34	4.78893
48.56	2.44582
48.78	18.6615
49	6.86665
49.22	11.0227
49.44	1.0449
49.66	9.99706
49.88	2.95032
50.1	3.23853
50.32	10.5107
50.54	28.5971
50.76	8.80449
50.98	13.9565
51.2	25.7199
51.42	6.76361
51.64	3.79745
51.86	1.81153
52.08	2.62451
52.3	4.5725
52.52	28.5682
52.74	2.27303
52.96	9.94591
53.18	7.63113
53.4	30.6272
53.62	6.8891
53.84	1.45665
54.06	13.6327
54.28	11.6255
54.5	3.78667
54.72	22.9821
54.94	3.01308
55.16	8.65054
55.38	11.8792
55.6	23.1169
55.82	3.2984
56.04	0.354669
56.26	5.51645
56.48	7.85853
56.7	5.04439
56.92	9.23128
57.14	2.59086
57.36	6.91623
57.58	10.9184
57.8	25.0157
58.02	10.0352
58.24	0.951453
58.46	0.830503
58.68	11.4144
58.9	5.22003
59.12	11.4222
59.34	4.25748
59.56	6.91774
59.78	4.38733
60	0.97962
60.22	3.13379
60.44	2.11163
60.66	16.2492
60.88	13.3451
61.1	4.68948
61.32	0.213758
61.54	0.330782
61.76	9.70053
61.98	10.7396
62.2	3.75509
62.42	1.73729
62.64	11.4552
62.86	11.5494
63.08	15.3699
63.3	9.58743
63.52	5.44554
63.74	6.31347
63.96	7.32964
64.18	3.5163
64.4	5.85583
64.62	5.89472
64.84	9.96278
65.06	3.07437
65.28	2.02673
65.5	4.00046
65.72	13.1375
65.94	7.3427
66.16	11.7611
66.38	10.7892
66.6	3.69133
66.82	8.39985
67.04	11.6248
67.26	12.752
67.48	8.60401
67.7	4.73272
67.92	6.64567
68.14	3.09376
68.36	4.82878
68.58	6.25351
68.8	1.59755
69.02	4.77622
69.24	4.75845
69.46	2.49349
69.68	10.0034
69.9	1.21607
70.12	7.13908
70.34	8.33803
70.56	1.47547
70.78	4.05666
71	14.3492
71.22	17.3127
71.44	7.97936
71.66	0.478759
71.88	2.42424
72.1	6.19447
72.32	0.865294
72.54	9.12908
72.76	3.14589
72.98	9.94294
73.2	11.9369
73.42	2.99966
73.64	9.16876
73.86	6.15937
74.08	3.7975
74.3	4.95932
74.52	6.18366
74.74	10.4347
74.96	4.73734
75.18	8.16353
75.4	12.2334
75.62	6.09669
75.84	6.41693
76.06	6.83231
76.28	1.48497
76.5	16.3694
76.72	14.3385
76.94	4.30151
77.16	8.21228
77.38	3.81685
77.6	5.92669
77.82	7.09145
78.04	5.01715
78.26	3.57733
78.48	4.539
78.7	3.55158
78.92	9.54851
79.14	26.5377
79.36	13.4703
79.58	0.949978
79.8	15.9916
80.02	11.8231
80.24	4.93582
80.46	3.07791
80.68	4.2718
80.9	1.27745
81.12	8.54919
81.34	8.66011
81.56	5.71515
81.78	4.89147
82	1.71093
82.22	9.77432
82.44	12.0687
82.66	1.17758
82.88	4.48569
83.1	3.68126
83.32	3.69725
83.54	3.17887
83.76	5.42954
83.98	7.76412
84.2	7.66614
84.42	9.77732
84.64	3.71525
84.86	2.55395
85.08	2.42919
85.3	12.2067
85.52	7.16495
85.74	8.02644
85.96	6.66457
86.18	5.80877
86.4	7.58369
86.62	2.60922
86.84	8.66099
87.06	0.031089
87.28	10.1693
87.5	6.3437
87.72	12.5318
87.94	9.69276
88.16	2.94874
88.38	7.20761
88.6	6.29915
88.82	4.33141
89.04	4.46312
89.26	12.4086
89.48	6.60596
89.7	7.50683
89.92	0.212596
