Measurement: Powder, Xray Data XY Processed
Mineral: Godovikovite
Rruff sample: R070108
Ideal chemistry: (N^3-^H_4_)Al(S^6+^O_4_)_2_
Locality: Kladno, Bohmen, Czech Republic
Source: Michael Scott
Description: Compact porous aggregate of white fibrous crystals
Diffraction sample description: Powder
x	intensity
5	0
5.22	13.548
5.44	7.13929
5.66	18.3241
5.88	4.02343
6.1	10.2325
6.32	36.7848
6.54	450.286
6.76	33.4787
6.98	17.4554
7.2	2.10149
7.42	4.71758
7.64	0.438299
7.86	3.17471
8.08	5.63176
8.3	1.03349
8.52	18.4958
8.74	20.7268
8.96	6.69292
9.18	23.2856
9.4	9.40712
9.62	18.8785
9.84	7.60565
10.06	10.6432
10.28	6.26269
10.5	27.7501
10.72	12.6546
10.94	17.4886
11.16	11.883
11.38	13.6675
11.6	11.8646
11.82	11.7574
12.04	116.441
12.26	22.9218
12.48	83.7854
12.7	47.0585
12.92	20.7098
13.14	36.3107
13.36	19.2532
13.58	47.6405
13.8	29.3457
14.02	39.4563
14.24	11.5263
14.46	10.9046
14.68	4.25073
14.9	0.03553
15.12	30.9913
15.34	63.6782
15.56	29.1459
15.78	30.1544
16	11.8614
16.22	18.0359
16.44	24.3178
16.66	10.0308
16.88	27.3972
17.1	6.90553
17.32	33.7465
17.54	33.0843
17.76	32.734
17.98	24.1458
18.2	54.2354
18.42	17.0362
18.64	1.69222
18.86	11.6062
19.08	16.9216
19.3	12.2665
19.52	14.3216
19.74	341.717
19.96	40.6205
20.18	150.614
20.4	151.238
20.62	170.275
20.84	28.6824
21.06	3.86585
21.28	30.9706
21.5	22.973
21.72	13.0556
21.94	36.1116
22.16	6.84464
22.38	78.3607
22.6	43.0222
22.82	108.407
23.04	21.6521
23.26	22.8812
23.48	10.9569
23.7	3.49371
23.92	9.67069
24.14	52.6423
24.36	39.4933
24.58	20.2532
24.8	51.6995
25.02	9.69427
25.24	4.40307
25.46	9.6646
25.68	23.7796
25.9	25.3351
26.12	25.3498
26.34	25.9549
26.56	41.2879
26.78	31.9096
27	12.2045
27.22	0.108311
27.44	25.9583
27.66	18.3055
27.88	23.8693
28.1	10.8781
28.32	25.2412
28.54	12.3392
28.76	22.8497
28.98	29.4498
29.2	23.9828
29.42	20.2337
29.64	62.3457
29.86	15.4055
30.08	22.2517
30.3	24.7946
30.52	17.2118
30.74	13.0864
30.96	9.97867
31.18	12.3229
31.4	11.8578
31.62	12.1852
31.84	16.3344
32.06	7.72476
32.28	30.506
32.5	3.84828
32.72	5.6625
32.94	21.1918
33.16	24.3105
33.38	13.6599
33.6	10.3066
33.82	23.3889
34.04	17.7836
34.26	25.0516
34.48	8.74434
34.7	2.28701
34.92	9.73128
35.14	22.3537
35.36	10.1253
35.58	12.8483
35.8	0.618168
36.02	49.5606
36.24	37.4498
36.46	12.3532
36.68	10.7098
36.9	17.1984
37.12	0.212482
37.34	4.25638
37.56	13.5567
37.78	26.9048
38	16.7595
38.22	2.98284
38.44	9.38104
38.66	21.3467
38.88	18.484
39.1	8.93502
39.32	23.7264
39.54	7.06098
39.76	24.6772
39.98	11.9503
40.2	0.105316
40.42	11.9392
40.64	1.06845
40.86	6.92668
41.08	6.54945
41.3	13.8111
41.52	4.53595
41.74	7.90489
41.96	16.8928
42.18	6.52653
42.4	21.959
42.62	20.4312
42.84	13.2323
43.06	14.7617
43.28	14.8942
43.5	6.87432
43.72	9.85096
43.94	4.13922
44.16	2.05072
44.38	19.459
44.6	10.2095
44.82	14.7756
45.04	17.0249
45.26	14.6742
45.48	5.26704
45.7	8.85998
45.92	13.9969
46.14	13.8165
46.36	25.2456
46.58	12.3706
46.8	0.572277
47.02	4.91858
47.24	17.2502
47.46	13.7418
47.68	7.98811
47.9	0.283092
48.12	6.44972
48.34	19.1955
48.56	6.15075
48.78	14.5058
49	14.5549
49.22	19.5243
49.44	6.75168
49.66	20.6993
49.88	7.09459
50.1	9.43932
50.32	3.00552
50.54	11.3857
50.76	10.217
50.98	13.9617
51.2	0.764685
51.42	6.27459
51.64	3.07448
51.86	13.6166
52.08	17.4704
52.3	8.66506
52.52	2.04474
52.74	17.32
52.96	3.44468
53.18	14.2099
53.4	6.12363
53.62	11.1581
53.84	8.18348
54.06	8.87251
54.28	9.79892
54.5	6.74471
54.72	3.7293
54.94	1.27034
55.16	11.5185
55.38	11.6127
55.6	16.9107
55.82	1.97448
56.04	7.14327
56.26	18.273
56.48	0.51615
56.7	1.51239
56.92	7.35611
57.14	11.7769
57.36	9.23759
57.58	20.3012
57.8	11.5598
58.02	12.6374
58.24	10.9424
58.46	22.1459
58.68	3.29699
58.9	1.63001
59.12	4.30289
59.34	8.59984
59.56	8.70841
59.78	6.94346
60	2.11689
60.22	8.3585
60.44	14.7661
60.66	1.15677
60.88	20.0748
61.1	2.23885
61.32	4.57792
61.54	11.5443
61.76	5.66477
61.98	11.7665
62.2	4.70941
62.42	3.41027
62.64	11.3462
62.86	7.8018
63.08	6.85102
63.3	2.8567
63.52	11.2091
63.74	13.0453
63.96	10.9853
64.18	5.16922
64.4	8.29484
64.62	10.3809
64.84	15.9164
65.06	7.23349
65.28	13.8903
65.5	14.932
65.72	14.1281
65.94	7.95022
66.16	2.73292
66.38	8.45358
66.6	12.385
66.82	15.4563
67.04	4.51656
67.26	0.30595
67.48	4.52131
67.7	8.74986
67.92	8.83669
68.14	8.24332
68.36	3.89024
68.58	4.41433
68.8	5.2756
69.02	8.264
69.24	0.183702
69.46	10.1324
69.68	13.0517
69.9	10.1304
70.12	0.905624
70.34	6.12205
70.56	8.67025
70.78	8.01392
71	12.5958
71.22	0.201855
71.44	3.96526
71.66	9.15441
71.88	6.24302
72.1	16.6523
72.32	1.74304
72.54	11.8939
72.76	12.8581
72.98	10.7092
73.2	2.66089
73.42	9.88157
73.64	7.88815
73.86	13.9295
74.08	4.21093
74.3	8.41622
74.52	4.09739
74.74	3.27314
74.96	8.21435
75.18	9.09281
75.4	6.06798
75.62	11.0201
75.84	7.89438
76.06	5.10154
76.28	7.24174
76.5	19.1376
76.72	2.88367
76.94	8.20074
77.16	1.02455
77.38	7.49136
77.6	6.78963
77.82	4.97347
78.04	10.9104
78.26	3.39355
78.48	11.2565
78.7	12.4313
78.92	11.417
79.14	6.69883
79.36	4.95103
79.58	15.0082
79.8	11.8527
80.02	8.67976
80.24	9.80689
80.46	5.84415
80.68	1.46183
80.9	8.49859
81.12	9.26185
81.34	10.1127
81.56	1.98176
81.78	3.92645
82	7.22694
82.22	12.1106
82.44	7.14281
82.66	6.99698
82.88	9.34747
83.1	12.4067
83.32	4.5964
83.54	11.6728
83.76	3.69589
83.98	3.65876
84.2	6.76478
84.42	10.4582
84.64	7.38936
84.86	3.36689
85.08	8.37579
85.3	11.451
85.52	6.39579
85.74	3.19754
85.96	8.22837
86.18	5.19624
86.4	5.11003
86.62	4.08099
86.84	13.0567
87.06	1.06165
87.28	5.03853
87.5	6.23999
87.72	6.003
87.94	3.20925
88.16	12.2615
88.38	8.47355
88.6	8.85425
88.82	17.3155
89.04	0.417914
89.26	8.31044
89.48	12.4801
89.7	11.2397
89.92	9.43626
