Measurement: Powder, Xray Data XY Processed
Mineral: Goethite
Rruff sample: R050142
Ideal chemistry: Fe^3+^O(OH)
Locality: Park County, Colorado, USA
Source: Dave Bunk Minerals
Description: Radiating spray of black to brown platy crystals
Diffraction sample description: Powder
Measured chemistry: FeO(OH)
Cell parameters: a: 9.9613(2) b: 3.0226(2) c: 4.6017(3) alpha: 90. beta: 90. gamma: 90. volume: 138.555(9) crystal system: orthorhombic
x	intensity
5	0
5.22	14.417
5.44	25.2995
5.66	1.78735
5.88	31.5466
6.1	14.1521
6.32	39.4149
6.54	33.1522
6.76	28.5071
6.98	18.0091
7.2	2.76379
7.42	3.92036
7.64	34.876
7.86	34.0341
8.08	23.2829
8.3	0.400513
8.52	32.3336
8.74	2.20738
8.96	14.9375
9.18	10.9411
9.4	18.2379
9.62	36.1922
9.84	5.31113
10.06	9.67216
10.28	11.791
10.5	15.0657
10.72	39.3113
10.94	23.6521
11.16	19.4319
11.38	39.5423
11.6	15.2103
11.82	12.4073
12.04	1.7957
12.26	42.7976
12.48	0.783905
12.7	31.5966
12.92	31.8451
13.14	33.0541
13.36	18.3845
13.58	10.9827
13.8	26.9145
14.02	43.2063
14.24	6.96428
14.46	6.29765
14.68	10.4293
14.9	26.6652
15.12	33.2825
15.34	12.6118
15.56	19.3635
15.78	28.1772
16	12.9052
16.22	6.6555
16.44	8.75737
16.66	23.3373
16.88	25.3218
17.1	9.70497
17.32	24.3812
17.54	15.7839
17.76	50.3775
17.98	48.5248
18.2	12.612
18.42	21.1818
18.64	0.948334
18.86	52.9656
19.08	45.6286
19.3	27.4056
19.52	16.5723
19.74	33.6191
19.96	35.1561
20.18	21.994
20.4	49.4895
20.62	25.3882
20.84	35.4386
21.06	29.9307
21.28	160.718
21.5	31.2675
21.72	33.7108
21.94	32.9755
22.16	10.2845
22.38	10.899
22.6	29.8206
22.82	6.30516
23.04	21.0346
23.26	4.89214
23.48	29.1642
23.7	17.0951
23.92	41.8312
24.14	0.958145
24.36	21.328
24.58	1.63207
24.8	39.9849
25.02	28.0514
25.24	18.6264
25.46	10.79
25.68	5.357
25.9	40.1715
26.12	20.9112
26.34	17.7147
26.56	37.8431
26.78	18.1667
27	35.3181
27.22	23.2911
27.44	9.99097
27.66	45.6293
27.88	46.4402
28.1	27.3162
28.32	15.3888
28.54	36.8801
28.76	2.76033
28.98	34.7169
29.2	18.9163
29.42	34.1056
29.64	33.4008
29.86	15.0287
30.08	13.127
30.3	25.8172
30.52	19.5627
30.74	11.748
30.96	5.20047
31.18	8.67305
31.4	19.5095
31.62	27.6715
31.84	6.41609
32.06	28.7079
32.28	3.21635
32.5	46.7793
32.72	37.6921
32.94	45.8561
33.16	28.4702
33.38	125.164
33.6	26.6263
33.82	23.01
34.04	13.4954
34.26	26.8828
34.48	25.8797
34.7	72.9159
34.92	21.4743
35.14	17.1912
35.36	23.5925
35.58	16.4727
35.8	39.7669
36.02	75.4442
36.24	53.2558
36.46	14.8021
36.68	96.3288
36.9	18.1154
37.12	57.8566
37.34	33.6713
37.56	21.018
37.78	36.5281
38	23.4112
38.22	19.2161
38.44	31.7377
38.66	7.77376
38.88	47.4532
39.1	29.9476
39.32	16.8019
39.54	21.4852
39.76	33.2358
39.98	22.829
40.2	30.1804
40.42	23.5651
40.64	46.4314
40.86	33.8822
41.08	6.15169
41.3	50.7599
41.52	8.71948
41.74	49.2935
41.96	2.93436
42.18	22.6158
42.4	28.2337
42.62	34.215
42.84	28.4276
43.06	32.854
43.28	33.545
43.5	2.43515
43.72	66.3788
43.94	17.2847
44.16	20.1893
44.38	31.1119
44.6	16.8031
44.82	24.2512
45.04	16.5747
45.26	31.5917
45.48	36.6205
45.7	9.92821
45.92	23.6724
46.14	9.7287
46.36	28.7201
46.58	10.1908
46.8	25.2705
47.02	1.91624
47.24	22.1531
47.46	56.569
47.68	30.3057
47.9	3.39854
48.12	2.68999
48.34	17.7141
48.56	30.1158
48.78	21.4305
49	19.3148
49.22	31.531
49.44	17.2014
49.66	11.6967
49.88	21.2896
50.1	19.2512
50.32	0.192993
50.54	2.60521
50.76	13.0393
50.98	39.0134
51.2	38.239
51.42	29.081
51.64	17.7271
51.86	36.5711
52.08	18.2857
52.3	51.0994
52.52	32.8684
52.74	24.8188
52.96	11.144
53.18	39.2703
53.4	13.3847
53.62	19.0729
53.84	23.0399
54.06	6.02405
54.28	40.5639
54.5	25.5895
54.72	46.3318
54.94	30.4897
55.16	21.3841
55.38	46.6413
55.6	30.1129
55.82	39.8789
56.04	40.6647
56.26	18.1434
56.48	19.1434
56.7	23.3602
56.92	30.0447
57.14	28.9759
57.36	32.5133
57.58	37.6809
57.8	46.5074
58.02	39.4154
58.24	1.16443
58.46	22.4106
58.68	19.7011
58.9	30.0871
59.12	29.9729
59.34	21.7386
59.56	48.5605
59.78	39.9327
60	35.7494
60.22	12.7879
60.44	27.9122
60.66	24.8447
60.88	28.3336
61.1	40.8454
61.32	30.4631
61.54	59.8272
61.76	20.0494
61.98	16.3195
62.2	26.1998
62.42	10.8801
62.64	35.6744
62.86	7.36868
63.08	42.2553
63.3	12.9991
63.52	9.58916
63.74	31.8916
63.96	64.234
64.18	25.2444
64.4	29.381
64.62	42.0746
64.84	20.1265
65.06	30.5143
65.28	11.2749
65.5	0.296814
65.72	22.3716
65.94	16.7459
66.16	13.322
66.38	42.8055
66.6	15.3786
66.82	21.2418
67.04	18.8093
67.26	35.2158
67.48	2.09531
67.7	17.2886
67.92	25.606
68.14	20.9825
68.36	9.37369
68.58	24.2283
68.8	35.042
69.02	28.482
69.24	56.0121
69.46	0.902069
69.68	24.9323
69.9	17.4506
70.12	5.34944
70.34	33.9774
70.56	1.83069
70.78	12.4746
71	27.0618
71.22	26.3688
71.44	17.0536
71.66	28.3875
71.88	25.0349
72.1	21.5594
72.32	11.9096
72.54	33.0323
72.76	37.4688
72.98	7.40117
73.2	5.82667
73.42	20.7686
73.64	30.1309
73.86	53.9098
74.08	70.3938
74.3	24.719
74.52	19.4734
74.74	4.31943
74.96	25.2557
75.18	42.4812
75.4	38.2628
75.62	12.6615
75.84	16.2067
76.06	18.8895
76.28	21.8388
76.5	4.65436
76.72	9.16725
76.94	22.219
77.16	23.9642
77.38	39.1383
77.6	42.0183
77.82	9.74725
78.04	41.2202
78.26	25.4152
78.48	25.1738
78.7	24.3607
78.92	4.15492
79.14	11.4256
79.36	42.4775
79.58	6.10381
79.8	6.98334
80.02	20.2831
80.24	34.6929
80.46	16.8035
80.68	33.2781
80.9	30.4125
81.12	32.0056
81.34	45.6681
81.56	56.2033
81.78	16.2152
82	22.9428
82.22	25.1048
82.44	35.0676
82.66	21.3205
82.88	23.5096
83.1	36.9441
83.32	5.50772
83.54	2.87647
83.76	24.7963
83.98	11.8112
84.2	13.8928
84.42	29.1328
84.64	4.90869
84.86	7.03706
85.08	6.99414
85.3	10.7613
85.52	15.4319
85.74	48.2367
85.96	33.6911
86.18	24.3426
86.4	6.92947
86.62	0.570618
86.84	6.35114
87.06	2.52832
87.28	46.1866
87.5	11.5683
87.72	27.142
87.94	28.6989
88.16	15.3795
88.38	26.8763
88.6	46.6538
88.82	12.2221
89.04	23.3341
89.26	32.6157
89.48	42.0488
89.7	18.5801
89.92	17.5048
