Measurement: Powder, Xray Data XY Processed
Mineral: Gorgeyite
Rruff sample: R060578
Ideal chemistry: K_2_Ca_5_(S^6+^O_4_)_6_H_2_O
Locality: Inder Lake, West Kazakhstan, Kazakhstan
Source: Michael Scott
Description: Colorless to yellow tabular crystals
Diffraction sample description: Powder
Cell parameters: a: 17.5117(5) b: 6.8352(2) c: 18.2395(6) alpha: 90. beta: 113.329(3) gamma: 90. volume: 2004.73(8) crystal system: monoclinic
x	intensity
5	0
5.22	9.88912
5.44	9.14842
5.66	4.11356
5.88	14.3575
6.1	0.798797
6.32	10.8393
6.54	18.2098
6.76	3.75324
6.98	5.81755
7.2	11.8038
7.42	16.5336
7.64	10.2586
7.86	10.9415
8.08	0.413582
8.3	2.37952
8.52	9.79197
8.74	0.261939
8.96	0.092902
9.18	3.17958
9.4	4.97249
9.62	6.92373
9.84	2.96602
10.06	4.043
10.28	2.27952
10.5	5.25346
10.72	7.29639
10.94	8.63135
11.16	6.85526
11.38	0.143562
11.6	1.29566
11.82	2.79475
12.04	7.95596
12.26	11.3398
12.48	1.63229
12.7	8.83125
12.92	5.06442
13.14	3.15751
13.36	8.25424
13.58	0.285637
13.8	0.61931
14.02	20.425
14.24	3.29141
14.46	5.20334
14.68	2.1745
14.9	3.09029
15.12	1.97527
15.34	6.9769
15.56	3.17193
15.78	30.1155
16	8.1729
16.22	6.28771
16.44	6.49932
16.66	2.44452
16.88	5.38597
17.1	6.39957
17.32	2.4054
17.54	3.29066
17.76	7.26743
17.98	4.06799
18.2	10.3058
18.42	1.28819
18.64	6.30547
18.86	2.18144
19.08	5.32225
19.3	4.41715
19.52	4.62488
19.74	4.72512
19.96	0.770358
20.18	2.82236
20.4	2.84192
20.62	3.6551
20.84	3.71209
21.06	4.65486
21.28	28.6553
21.5	4.48288
21.72	5.66588
21.94	5.61016
22.16	5.54561
22.38	4.56081
22.6	2.54091
22.82	2.53007
23.04	6.57772
23.26	5.57364
23.48	1.57101
23.7	9.50771
23.92	13.5084
24.14	2.61857
24.36	3.57957
24.58	1.58464
24.8	4.64383
25.02	3.62951
25.24	4.54644
25.46	5.37307
25.68	1.27215
25.9	1.42266
26.12	17.5137
26.34	9.45375
26.56	34.1615
26.78	5.97774
27	1.71937
27.22	2.30155
27.44	1.92874
27.66	4.59568
27.88	1.62557
28.1	33.3119
28.32	27.3196
28.54	4.81398
28.76	9.38876
28.98	0.972382
29.2	22.6788
29.42	80.5269
29.64	56.4924
29.86	26.0428
30.08	9.31769
30.3	2.57244
30.52	12.7006
30.74	11.9398
30.96	0.461368
31.18	0.330459
31.4	2.73725
31.62	5.79776
31.84	44.9407
32.06	7.98624
32.28	5.47579
32.5	113.212
32.72	18.9764
32.94	6.20358
33.16	2.56802
33.38	9.56985
33.6	4.94742
33.82	13.3473
34.04	5.8416
34.26	3.26766
34.48	2.56345
34.7	2.84127
34.92	7.07495
35.14	2.17237
35.36	3.11749
35.58	5.15964
35.8	9.17961
36.02	8.08651
36.24	7.07946
36.46	0.995241
36.68	0.249896
36.9	3.7192
37.12	5.78248
37.34	3.80236
37.56	3.73175
37.78	1.75227
38	4.9089
38.22	4.78824
38.44	0.62887
38.66	2.48861
38.88	12.4374
39.1	4.43524
39.32	7.58411
39.54	10.4468
39.76	5.35631
39.98	13.5897
40.2	0.541621
40.42	0.819571
40.64	4.24577
40.86	0.413394
41.08	4.46162
41.3	0.412037
41.52	24.3462
41.74	2.11959
41.96	0.060929
42.18	1.02892
42.4	21.9407
42.62	12.1586
42.84	7.25167
43.06	19.1633
43.28	11.9982
43.5	1.95368
43.72	1.25987
43.94	2.39003
44.16	3.40794
44.38	1.57277
44.6	0.597246
44.82	9.71727
45.04	4.53794
45.26	13.4563
45.48	5.45036
45.7	2.38774
45.92	4.50201
46.14	1.50836
46.36	9.50296
46.58	2.44941
46.8	9.33779
47.02	4.15932
47.24	0.939366
47.46	7.30722
47.68	2.30558
47.9	43.4077
48.12	11.3173
48.34	2.04204
48.56	7.62549
48.78	5.64884
49	3.59922
49.22	7.4545
49.44	50.3408
49.66	18.2017
49.88	2.87993
50.1	2.76942
50.32	10.9117
50.54	11.3534
50.76	17.6233
50.98	25.3424
51.2	3.46141
51.42	5.65028
51.64	6.95683
51.86	4.0596
52.08	1.75634
52.3	5.20514
52.52	1.00189
52.74	14.544
52.96	0.22643
53.18	3.72354
53.4	4.06872
53.62	41.5319
53.84	4.43801
54.06	2.32439
54.28	35.2752
54.5	10.1512
54.72	10.2166
54.94	0.498112
55.16	7.9225
55.38	3.38732
55.6	7.67658
55.82	10.9973
56.04	5.30159
56.26	1.37523
56.48	3.77966
56.7	4.00689
56.92	5.14433
57.14	2.25385
57.36	2.22884
57.58	2.06736
57.8	1.04426
58.02	5.99712
58.24	11.93
58.46	3.97127
58.68	5.75312
58.9	9.73282
59.12	5.64245
59.34	0.597169
59.56	2.822
59.78	2.86805
60	2.65597
60.22	5.60144
60.44	18.6152
60.66	1.51726
60.88	4.41969
61.1	0.595307
61.32	2.20467
61.54	8.13969
61.76	7.01357
61.98	0.105245
62.2	2.72445
62.42	3.72687
62.64	10.7617
62.86	4.78427
63.08	6.88216
63.3	3.16597
63.52	2.4959
63.74	2.60566
63.96	4.7868
64.18	1.98059
64.4	2.20219
64.62	1.49651
64.84	3.62057
65.06	7.68534
65.28	4.72498
65.5	5.74705
65.72	3.57853
65.94	7.28829
66.16	3.30766
66.38	4.47075
66.6	2.33834
66.82	4.29195
67.04	0.218533
67.26	2.23733
67.48	2.34466
67.7	2.31278
67.92	4.28003
68.14	6.31879
68.36	3.25587
68.58	2.26192
68.8	6.0262
69.02	1.98657
69.24	1.84331
69.46	5.92801
69.68	3.79683
69.9	0.656171
70.12	4.60029
70.34	8.5815
70.56	5.54021
70.78	0.37481
71	7.57642
71.22	1.46629
71.44	1.35277
71.66	2.16451
71.88	5.08754
72.1	1.93731
72.32	3.7984
72.54	5.85114
72.76	0.896119
72.98	16.7504
73.2	8.54904
73.42	9.61368
73.64	2.55732
73.86	7.57264
74.08	8.75927
74.3	4.8258
74.52	3.95925
74.74	3.05476
74.96	4.23183
75.18	11.3041
75.4	3.42197
75.62	6.66153
75.84	6.63546
76.06	2.81328
76.28	4.90491
76.5	9.71892
76.72	4.84982
76.94	4.99463
77.16	6.38305
77.38	12.1005
77.6	11.126
77.82	6.31872
78.04	3.20603
78.26	1.85211
78.48	4.03636
78.7	2.07718
78.92	1.20915
79.14	3.25969
79.36	5.06324
79.58	0.669913
79.8	5.70727
80.02	3.67288
80.24	9.3818
80.46	4.42802
80.68	3.3466
80.9	5.40855
81.12	5.30819
81.34	2.9931
81.56	4.00987
81.78	2.36382
82	1.2702
82.22	11.3271
82.44	2.4144
82.66	1.60579
82.88	1.17364
83.1	8.84228
83.32	7.81275
83.54	3.86654
83.76	5.10796
83.98	5.1461
84.2	7.89594
84.42	9.89488
84.64	0.938013
84.86	2.84661
85.08	0.70702
85.3	4.44384
85.52	2.3563
85.74	4.25943
85.96	5.1632
86.18	0.907527
86.4	8.01551
86.62	1.87903
86.84	6.82264
87.06	2.74316
87.28	11.7587
87.5	6.80842
87.72	5.98859
87.94	9.1813
88.16	0.555681
88.38	4.80332
88.6	2.00187
88.82	2.06862
89.04	0.464531
89.26	8.9098
89.48	3.1122
89.7	3.04456
89.92	4.35651
