Measurement: Powder, Xray Data XY Processed
Mineral: Goudeyite
Rruff sample: R060268
Ideal chemistry: Cu^2+^_6_Al(As^5+^O_4_)_3_(OH)_6_3H_2_O
Locality: Copper Stope, Majuba Hill mine, Pershing County, Nevada, USA
Source: Michael Scott
Description: Green acicular crystals in spherical aggregates
Diffraction sample description: Powder, using Mo radiation
Cell parameters: a: 13.463(3) b: 13.463(3) c: 5.914(2) alpha: 90 beta: 90 gamma: 120 volume: 928.3(4) crystal system: hexagonal
x	intensity
6	0
6.11	8.89984
6.22	20.9298
6.33	20.6641
6.44	38.1083
6.55	57.8007
6.66	14.6554
6.77	23.8674
6.88	27.6073
6.99	32.8638
7.1	54.7581
7.21	17.083
7.32	8.18945
7.43	35.1622
7.54	26.3418
7.65	27.5514
7.76	55.5841
7.87	42.1825
7.98	37.6161
8.09	4.21997
8.2	16.3685
8.31	1.8269
8.42	26.5201
8.53	1.2406
8.64	29.7869
8.75	2.20581
8.86	23.5398
8.97	83.3018
9.08	224.256
9.19	335.483
9.3	287.669
9.41	150.46
9.52	73.5476
9.63	75.41
9.74	103.86
9.85	86.1024
9.96	45.9719
10.07	34.7494
10.18	3.98377
10.29	10.2584
10.4	33.0011
10.51	30.6078
10.62	13.0587
10.73	3.13879
10.84	3.02002
10.95	3.18018
11.06	16.7175
11.17	30.2369
11.28	90.5234
11.39	266.552
11.5	409.569
11.61	326.491
11.72	110.4
11.83	43.9707
11.94	38.5712
12.05	86.0147
12.16	79.0946
12.27	51.1001
12.38	60.1388
12.49	141.97
12.6	252.241
12.71	151.346
12.82	32.9645
12.93	2.69067
13.04	5.79327
13.15	9.09705
13.26	0.099365
13.37	11.4967
13.48	3.67365
13.59	5.98834
13.7	43.7884
13.81	201.793
13.92	411.623
14.03	384.516
14.14	170.313
14.25	110.725
14.36	132.58
14.47	93.8659
14.58	25.2555
14.69	10.6644
14.8	9.41138
14.91	15.2322
15.02	81.7868
15.13	146.658
15.24	186.324
15.35	115.531
15.46	32.7129
15.57	18.8446
15.68	11.167
15.79	31.0568
15.9	131.12
16.01	259.739
16.12	196.191
16.23	47.2805
16.34	45.193
16.45	187.371
16.56	526.375
16.67	547.009
16.78	276.119
16.89	66.512
17	2.18335
17.11	3.56262
17.22	3.34137
17.33	15.126
17.44	23.7635
17.55	2.97778
17.66	4.65845
17.77	11.3632
17.88	3.10034
17.99	5.26636
18.1	4.88458
18.21	8.89154
18.32	51.0879
18.43	60.1982
18.54	47.2492
18.65	42.8461
18.76	47.9175
18.87	28.5008
18.98	16.4806
19.09	15.2127
19.2	17.8744
19.31	17.2062
19.42	77.4739
19.53	105.359
19.64	77.3511
19.75	74.9992
19.86	58.5187
19.97	13.8198
20.08	17.0167
20.19	4.53857
20.3	11.4378
20.41	22.132
20.52	37.0132
20.63	64.1233
20.74	55.6395
20.85	56.9389
20.96	45.0085
21.07	31.0147
21.18	35.9013
21.29	67.5316
21.4	56.671
21.51	30.8366
21.62	6.44373
21.73	6.8941
21.84	5.72571
21.95	11.3273
22.06	1.63416
22.17	5.09869
22.28	19.9058
22.39	39.7165
22.5	43.5113
22.61	43.8607
22.72	65.1876
22.83	102.802
22.94	123.721
23.05	165.51
23.16	204.741
23.27	129.287
23.38	47.7159
23.49	4.83264
23.6	6.05603
23.71	0.089783
23.82	36.026
23.93	109.843
24.04	119.922
24.15	74.8141
24.26	57.9406
24.37	52.5055
24.48	59.6965
24.59	53.9415
24.7	39.2225
24.81	0.11731
24.92	8.73254
25.03	19.7861
25.14	88.5551
25.25	151.247
25.36	127.563
25.47	117.588
25.58	95.2471
25.69	64.1107
25.8	34.3454
25.91	65.7422
26.02	68.5979
26.13	36.0845
26.24	8.87067
26.35	5.43011
26.46	31.263
26.57	31.8949
26.68	37.1073
26.79	46.3674
26.9	43.8169
27.01	31.2936
27.12	18.1891
27.23	11.7355
27.34	4.12219
27.45	19.4203
27.56	12.2162
27.67	58.7286
27.78	63.5722
27.89	86.2245
28	99.5127
28.11	88.819
28.22	60.2062
28.33	49.5292
28.44	4.87354
28.55	10.3263
28.66	3.66815
28.77	44.857
28.88	55.5736
28.99	24.9922
29.1	16.418
29.21	3.11871
29.32	11.3323
29.43	7.03882
29.54	2.85602
29.65	18.1553
29.76	13.113
29.87	30.5425
29.98	31.9339
30.09	22.5516
30.2	10.3271
30.31	15.7291
30.42	4.53729
30.53	19.465
30.64	32.2194
30.75	37.8547
30.86	41.6655
30.97	45.606
31.08	14.0681
31.19	12.6503
31.3	8.59906
31.41	28.4394
31.52	20.361
31.63	16.6522
31.74	2.05402
31.85	9.41278
31.96	18.3748
32.07	42.3253
32.18	51.2593
32.29	52.6234
32.4	38.2814
32.51	17.3132
32.62	16.3283
32.73	10.3042
32.84	8.32037
32.95	7.92474
33.06	16.4374
33.17	18.4726
33.28	16.2588
33.39	19.3096
33.5	28.1663
33.61	33.4666
33.72	29.6383
33.83	26.7212
33.94	19.2545
34.05	17.1524
34.16	28.2264
34.27	22.2499
34.38	7.99139
34.49	9.87378
34.6	5.41989
34.71	9.81451
34.82	13.3562
34.93	0.863647
35.04	3.75662
35.15	3.58124
35.26	22.9775
35.37	21.224
35.48	11.1022
35.59	13.277
35.7	19.3669
35.81	20.4486
35.92	16.6108
36.03	7.72681
36.14	1.16623
36.25	3.20691
36.36	7.18021
36.47	22.6293
36.58	38.26
36.69	33.777
36.8	44.7807
36.91	38.5576
37.02	20.2631
37.13	9.90884
37.24	34.8139
37.35	17.8387
37.46	35.2635
37.57	13.3125
37.68	3.1875
37.79	5.21356
37.9	8.05279
38.01	23.6287
38.12	22.4828
38.23	27.684
38.34	19.5469
38.45	25.884
38.56	8.78491
38.67	22.3497
38.78	27.2431
38.89	16.3373
39	19.9948
39.11	19.4381
39.22	1.69373
39.33	7.42078
39.44	4.42288
39.55	3.80289
39.66	20.3495
39.77	15.032
39.88	3.85168
39.99	37.3066
40.1	11.9052
40.21	30.6311
40.32	16.1851
40.43	25.8876
40.54	33.9327
40.65	30.17
40.76	17.9217
40.87	7.24527
40.98	4.38779
41.09	23.4527
41.2	11.0175
41.31	7.14462
41.42	14.2632
41.53	13.1252
41.64	0.541687
41.75	13.5857
41.86	4.95273
41.97	12.4009
42.08	12.0159
42.19	18.9426
42.3	27.0585
42.41	8.45883
42.52	1.60526
42.63	27.6364
42.74	8.62003
42.85	34.0149
42.96	16.3362
43.07	17.8986
43.18	33.6954
43.29	30.2873
43.4	23.5663
43.51	46.0833
43.62	27.7319
43.73	17.6
43.84	17.7476
43.95	3.10434
44.06	12.4304
44.17	7.25397
44.28	22.8444
44.39	38.8001
44.5	18.5367
44.61	49.6238
44.72	25.2986
44.83	24.7724
44.94	29.0653
45.05	18.6645
45.16	28.3967
45.27	40.8728
45.38	7.06656
45.49	13.727
45.6	18.3856
45.71	8.62631
45.82	22.8928
45.93	24.3209
46.04	13.7511
46.15	18.843
46.26	8.33014
46.37	15.3612
46.48	9.76935
46.59	27.0978
46.7	14.5236
46.81	1.33933
46.92	10.0738
47.03	11.876
47.14	7.34097
47.25	33.7672
47.36	7.7821
47.47	4.77722
47.58	22.1407
47.69	5.23523
47.8	11.3641
47.91	10.9344
48.02	16.1101
48.13	17.4958
48.24	13.7169
48.35	25.7897
48.46	48.5034
48.57	40.6589
48.68	4.05191
48.79	39.8915
48.9	53.9596
49.01	65.9122
49.12	1.32919
