Measurement: Powder, Xray Data XY Processed
Mineral: Gowerite
Rruff sample: R050673
Ideal chemistry: Ca[B_5_O_8_(OH)][B(OH)_3_]3H_2_O
Locality: Death Valley, California, USA
Source: University of Arizona Mineral Museum
Description: Colorless bladed crystals associated with gypsum and priceite
Diffraction sample description: Single crystal, powder profile is calculated
Measured chemistry: (Ca_0.98_Sr_0.02_)_Σ=1_[B_5_O_8_(OH)][B(OH)_3_]·3H_2_O ; B not measured but estimated by stoichiometry
Cell parameters: a: 12.691(9) b: 16.319(9) c: 6.560(3) alpha: 90 beta: 120.22(2) gamma: 90 volume: 1174.3 crystal system: monoclinic
x	intensity
5	0
5.22	0
5.44	0
5.66	0
5.88	0
6.1	0
6.32	0
6.54	0
6.76	0
6.98	0
7.2	0
7.42	0
7.64	0
7.86	0
8.08	0
8.3	0
8.52	0
8.74	0
8.96	0
9.18	0
9.4	0
9.62	0.074
9.84	0.003
10.06	0
10.28	0
10.5	0
10.72	0.01
10.94	0.523
11.16	0
11.38	0
11.6	0
11.82	0
12.04	0
12.26	0
12.48	0
12.7	0
12.92	0
13.14	0
13.36	0
13.58	1.396
13.8	0
14.02	0
14.24	0
14.46	0.002
14.68	0
14.9	0
15.12	0
15.34	0
15.56	0.107
15.78	0
16	0
16.22	0.394
16.44	0
16.66	0.033
16.88	0.016
17.1	0.054
17.32	4.978
17.54	0
17.76	0
17.98	0
18.2	5.491
18.42	0
18.64	0
18.86	0
19.08	0.473
19.3	0.101
19.52	0.082
19.74	0
19.96	0
20.18	0
20.4	0
20.62	0
20.84	0
21.06	0
21.28	0.294
21.5	0
21.72	4.103
21.94	1.189
22.16	0
22.38	0
22.6	0.953
22.82	1.167
23.04	2.149
23.26	4.796
23.48	0
23.7	0.864
23.92	0.174
24.14	0
24.36	0
24.58	0
24.8	0
25.02	0.156
25.24	0
25.46	0
25.68	0.453
25.9	0
26.12	0
26.34	0
26.56	0.048
26.78	3.087
27	1.275
27.22	0.186
27.44	0
27.66	2.882
27.88	0.373
28.1	0.471
28.32	0.78
28.54	4.55
28.76	0.927
28.98	0.027
29.2	0.002
29.42	2.495
29.64	0
29.86	3.083
30.08	0.001
30.3	1.016
30.52	1.039
30.74	0.07
30.96	0
31.18	0
31.4	0
31.62	1.574
31.84	2.327
32.06	5.037
32.28	0.004
32.5	0.195
32.72	1.149
32.94	6.183
33.16	1.085
33.38	0.004
33.6	0.001
33.82	0.077
34.04	2.098
34.26	0
34.48	0.016
34.7	0.059
34.92	0.007
35.14	0.334
35.36	0
35.58	0.134
35.8	1.639
36.02	0.427
36.24	0.252
36.46	0
36.68	0.748
36.9	0.402
37.12	0.067
37.34	0.218
37.56	0.074
37.78	0
38	0
38.22	0.029
38.44	0
38.66	0.255
38.88	0.765
39.1	1.624
39.32	0.209
39.54	2.026
39.76	0.178
39.98	0.235
40.2	0.155
40.42	0
40.64	0
40.86	0.004
41.08	0.158
41.3	0.001
41.52	0.45
41.74	0.017
41.96	4.412
42.18	0.675
42.4	1.56
42.62	1.507
42.84	0.046
43.06	0.07
43.28	1.655
43.5	1.41
43.72	4.347
43.94	0.165
44.16	0.188
44.38	1.7
44.6	0.921
44.82	2.621
45.04	0.001
45.26	1.326
45.48	0.557
45.7	0.743
45.92	0.93
46.14	0.023
46.36	0.018
46.58	1.472
46.8	0.37
47.02	0.398
47.24	0.055
47.46	0.684
47.68	0.352
47.9	0.724
48.12	0.384
48.34	0.371
48.56	0.625
48.78	0.015
49	1.755
49.22	0.074
49.44	0.531
49.66	0.032
49.88	0.204
50.1	0.452
50.32	0.188
50.54	0.068
50.76	1.128
50.98	0.566
51.2	0.354
51.42	0.68
51.64	0.009
51.86	0.58
52.08	0.546
52.3	0.199
52.52	0.037
52.74	0.054
52.96	0.672
53.18	2.066
53.4	0.664
53.62	0.204
53.84	0.018
54.06	0.004
54.28	0.133
54.5	0.401
54.72	0.389
54.94	0.096
55.16	0.116
55.38	0.27
55.6	0.523
55.82	0.031
56.04	0.024
56.26	0.095
56.48	0.101
56.7	0.322
56.92	0.066
57.14	0.142
57.36	0.151
57.58	0.188
57.8	0.312
58.02	0.048
58.24	0.097
58.46	0.281
58.68	0.288
58.9	0.247
59.12	0.101
59.34	0.558
59.56	0.293
59.78	0.134
60	0.037
60.22	0.03
60.44	0.061
60.66	0.068
60.88	0.072
61.1	0.101
61.32	0.096
61.54	0.198
61.76	0.069
61.98	0.002
62.2	0.046
62.42	0.011
62.64	0.193
62.86	0.263
63.08	0.359
63.3	0.243
63.52	0.077
63.74	0.311
63.96	0.114
64.18	0.067
64.4	0.04
64.62	0.011
64.84	0.108
65.06	0.289
65.28	0.151
65.5	0.097
65.72	0.115
65.94	0.018
66.16	0.11
66.38	0.087
66.6	0.032
66.82	0.045
67.04	0.217
67.26	0.081
67.48	0.102
67.7	0.188
67.92	0.069
68.14	0.098
68.36	0.145
68.58	0.173
68.8	0.111
69.02	0.139
69.24	0.08
69.46	0.133
69.68	0.1
69.9	0.091
70.12	0.19
70.34	0.058
70.56	0.048
70.78	0.06
71	0.101
71.22	0.136
71.44	0.105
71.66	0.053
71.88	0.025
72.1	0.031
72.32	0.032
72.54	0.019
72.76	0.197
72.98	0.1
73.2	0.026
73.42	0.01
73.64	0.158
73.86	0.244
74.08	0.224
74.3	0.114
74.52	0.067
74.74	0.037
74.96	0.022
75.18	0.106
75.4	0.1
75.62	0.215
75.84	0.129
76.06	0.027
76.28	0.049
76.5	0.056
76.72	0.063
76.94	0.226
77.16	0.122
77.38	0.022
77.6	0.103
77.82	0.472
78.04	0.477
78.26	0.14
78.48	0.16
78.7	0.406
78.92	0.187
79.14	0.181
79.36	0.152
79.58	0.05
79.8	0.051
80.02	0.128
80.24	0.138
80.46	0.064
80.68	0.1
80.9	0.061
81.12	0.155
81.34	0.095
81.56	0.029
81.78	0.196
82	0.067
82.22	0.049
82.44	0.071
82.66	0.19
82.88	0.207
83.1	0.066
83.32	0.019
83.54	0.013
83.76	0.039
83.98	0.166
84.2	0.057
84.42	0.046
84.64	0.073
84.86	0.062
85.08	0.026
85.3	0.065
85.52	0.05
85.74	0.025
85.96	0.045
86.18	0.025
86.4	0.009
86.62	0.067
86.84	0.033
87.06	0.044
87.28	0.062
87.5	0.032
87.72	0.108
87.94	0.031
88.16	0.121
88.38	0.026
88.6	0.007
88.82	0.022
89.04	0.07
89.26	0.088
89.48	0.039
89.7	0.034
89.92	0.013
