Measurement: Powder, Xray Data XY Processed
Mineral: Graphite
Rruff sample: R050503
Ideal chemistry: C
Locality: Sterling mine, Ogdensburg, New Jersey, USA
Source: Marcus Origlieri
Description: Black hexagonal platy crystals
Diffraction sample description: Powder
Cell parameters: a: 2.4503(2) b: 2.4503(2) c: 6.7133(1) alpha: 90 beta: 90 gamma: 120 volume: 34.905(5) crystal system: hexagonal
x	intensity
5	0
5.22	9.70957
5.44	7.93491
5.66	23.4083
5.88	63.1884
6.1	55.8547
6.32	58.0755
6.54	32.0198
6.76	3.47395
6.98	3.89753
7.2	17.2372
7.42	13.8304
7.64	3.23214
7.86	3.35476
8.08	6.67488
8.3	6.05948
8.52	7.7898
8.74	7.24602
8.96	3.84098
9.18	13.6867
9.4	12.1489
9.62	17.7473
9.84	10.4173
10.06	5.27936
10.28	17.3084
10.5	3.75176
10.72	7.31315
10.94	2.41214
11.16	13.5272
11.38	13.4086
11.6	20.4623
11.82	17.7705
12.04	19.2894
12.26	19.8865
12.48	11.3246
12.7	8.82061
12.92	6.69608
13.14	10.0081
13.36	12.5343
13.58	6.36841
13.8	16.3411
14.02	14.8681
14.24	14.5091
14.46	24.0047
14.68	15.0433
14.9	17.3588
15.12	19.2052
15.34	21.6038
15.56	8.09495
15.78	16.5916
16	21.704
16.22	20.2437
16.44	18.5007
16.66	11.946
16.88	17.358
17.1	3.36762
17.32	28.2779
17.54	4.01145
17.76	5.83018
17.98	19.8655
18.2	13.1075
18.42	13.573
18.64	22.7219
18.86	26.3004
19.08	31.4077
19.3	7.97672
19.52	9.31207
19.74	14.8402
19.96	16.3354
20.18	12.7575
20.4	12.921
20.62	4.81038
20.84	10.9388
21.06	8.35651
21.28	19.1311
21.5	15.2818
21.72	11.6297
21.94	11.8129
22.16	15.862
22.38	14.5228
22.6	14.5419
22.82	0.096645
23.04	8.39017
23.26	1.24247
23.48	1.54985
23.7	5.13667
23.92	15.9076
24.14	518.962
24.36	65.5892
24.58	25.6041
24.8	11.9866
25.02	1.1045
25.24	9.13722
25.46	1.49874
25.68	3.39391
25.9	90.5263
26.12	117.805
26.34	141.116
26.56	689.984
26.78	20686.1
27	2899.68
27.22	140.197
27.44	27.5271
27.66	12.8616
27.88	22.0386
28.1	19.9189
28.32	12.5646
28.54	19.1619
28.76	11.679
28.98	18.3215
29.2	42.2786
29.42	13.247
29.64	15.0682
29.86	0.794189
30.08	5.46021
30.3	20.8136
30.52	28.4018
30.74	11.1611
30.96	18.2801
31.18	6.23878
31.4	15.2587
31.62	11.6517
31.84	24.3764
32.06	20.4781
32.28	6.98803
32.5	21.68
32.72	10.6623
32.94	26.4382
33.16	7.13917
33.38	10.0871
33.6	1.55741
33.82	23.9814
34.04	15.2642
34.26	16.3533
34.48	2.59888
34.7	21.3756
34.92	13.2768
35.14	9.80643
35.36	17.5291
35.58	13.005
35.8	7.80665
36.02	5.72253
36.24	1.99725
36.46	8.25877
36.68	11.2418
36.9	11.7607
37.12	5.2411
37.34	7.37839
37.56	0.442169
37.78	3.99143
38	0.37018
38.22	11.7253
38.44	13.9014
38.66	27.9793
38.88	5.1321
39.1	6.19043
39.32	18.3045
39.54	4.22111
39.76	5.28829
39.98	10.2622
40.2	3.41069
40.42	16.363
40.64	8.78043
40.86	3.694
41.08	11.9499
41.3	12.0848
41.52	18.9297
41.74	17.1282
41.96	12.2535
42.18	3.71502
42.4	18.7644
42.62	14.4139
42.84	12.4356
43.06	5.15801
43.28	1.85624
43.5	6.84539
43.72	8.01873
43.94	5.55815
44.16	8.97606
44.38	17.2038
44.6	6.44712
44.82	12.839
45.04	4.62776
45.26	7.12924
45.48	17.726
45.7	15.6716
45.92	16.0226
46.14	0.366529
46.36	13.6209
46.58	1.1661
46.8	5.25105
47.02	12.7738
47.24	14.1076
47.46	14.7326
47.68	1.80386
47.9	7.08868
48.12	8.12279
48.34	8.7677
48.56	5.4009
48.78	7.59572
49	11.6589
49.22	41.552
49.44	2.7823
49.66	6.79766
49.88	22.0039
50.1	17.1965
50.32	11.3552
50.54	10.8351
50.76	5.77573
50.98	15.0519
51.2	4.89635
51.42	7.75306
51.64	7.53364
51.86	7.17815
52.08	8.74427
52.3	0.332754
52.52	6.7444
52.74	11.519
52.96	6.37114
53.18	6.21349
53.4	2.90903
53.62	0.288755
53.84	4.57817
54.06	9.93665
54.28	3.78904
54.5	21.8738
54.72	89.9142
54.94	418.555
55.16	108.663
55.38	17.3529
55.6	2.95027
55.82	11.2817
56.04	2.19172
56.26	3.26301
56.48	3.43314
56.7	14.8656
56.92	8.90532
57.14	9.52066
57.36	10.5908
57.58	8.11528
57.8	17.683
58.02	12.7084
58.24	1.84998
58.46	5.00892
58.68	3.34648
58.9	8.74239
59.12	8.64655
59.34	10.5452
59.56	7.64345
59.78	13.4169
60	7.32403
60.22	3.09638
60.44	6.20154
60.66	15.1847
60.88	2.42386
61.1	7.64267
61.32	5.18224
61.54	0.052718
61.76	10.395
61.98	9.52543
62.2	4.85447
62.42	3.95591
62.64	2.99157
62.86	9.98257
63.08	6.36557
63.3	0.27269
63.52	3.20578
63.74	7.38262
63.96	6.74201
64.18	9.0943
64.4	13.0514
64.62	5.15009
64.84	16.213
65.06	9.32351
65.28	6.34829
65.5	5.12958
65.72	4.11642
65.94	5.35665
66.16	4.13279
66.38	4.94639
66.6	2.12487
66.82	4.29868
67.04	6.20263
67.26	1.61756
67.48	9.67443
67.7	1.19556
67.92	6.91364
68.14	7.275
68.36	0.267614
68.58	10.263
68.8	15.4842
69.02	12.3287
69.24	5.33002
69.46	2.62306
69.68	11.0741
69.9	11.0489
70.12	10.0485
70.34	1.2488
70.56	1.03141
70.78	12.6742
71	10.6386
71.22	5.23918
71.44	13.2807
71.66	0.692329
71.88	10.1133
72.1	5.15452
72.32	11.2927
72.54	5.60928
72.76	1.60505
72.98	6.59626
73.2	9.12016
73.42	4.33825
73.64	8.59166
73.86	0.063965
74.08	0.066903
74.3	1.31137
74.52	3.34091
74.74	3.3612
74.96	7.23813
75.18	4.19999
75.4	13.1538
75.62	9.07897
75.84	12.1315
76.06	14.021
76.28	1.61398
76.5	5.72326
76.72	9.73744
76.94	0.161695
77.16	7.82218
77.38	5.78443
77.6	9.78939
77.82	0.07348
78.04	10.8456
78.26	6.85356
78.48	2.09322
78.7	12.0466
78.92	6.97699
79.14	9.71723
79.36	6.78751
79.58	6.12688
79.8	5.46063
80.02	11.2713
80.24	4.34598
80.46	4.49547
80.68	9.53485
80.9	8.552
81.12	7.76922
81.34	10.6928
81.56	7.66451
81.78	15.2988
82	0.021116
82.22	1.70607
82.44	2.91417
82.66	3.80484
82.88	13.6472
83.1	12.807
83.32	3.53142
83.54	9.51433
83.76	8.53193
83.98	9.99828
84.2	3.90998
84.42	9.75035
84.64	9.92568
84.86	7.31747
85.08	2.77685
85.3	5.68528
85.52	5.18906
85.74	8.68677
85.96	7.91053
86.18	4.33858
86.4	9.36096
86.62	7.94181
86.84	11.6721
87.06	36.1493
87.28	101.476
87.5	137.62
87.72	17.0335
87.94	8.21082
88.16	4.66018
88.38	6.22918
88.6	3.78716
88.82	5.27644
89.04	1.02263
89.26	0.268158
89.48	9.09342
89.7	4.46879
89.92	3.10099
