Measurement: Powder, Xray Data XY Processed
Mineral: Gratonite
Rruff sample: R050365
Ideal chemistry: Pb^2+^_9_As^3+^_4_S^2-^_15_
Locality: Cerro de Pasco, Peru
Source: University of Arizona Mineral Museum
Description: Dark lead gray aggregate, including single crystals
Diffraction sample description: Powder
Measured chemistry: Pb_9.00_As_4.00_S_15.00_
Cell parameters: a: 17.721(2) b: 17.721(2) c: 7.797(1) alpha: 90. beta: 90. gamma: 120. volume: 2120.9(5) crystal system: hexagonal
x	intensity
5	0
5.22	9.1913
5.44	8.93488
5.66	3.01379
5.88	13.2431
6.1	9.74069
6.32	8.2951
6.54	9.90488
6.76	7.9462
6.98	6.71578
7.2	1.39373
7.42	7.45889
7.64	9.21542
7.86	4.91264
8.08	5.63906
8.3	1.36406
8.52	2.91043
8.74	5.22562
8.96	3.43263
9.18	2.46924
9.4	3.61605
9.62	5.72831
9.84	5.73076
10.06	5.88093
10.28	4.47987
10.5	11.495
10.72	2.35097
10.94	5.43719
11.16	7.71939
11.38	4.01964
11.6	8.31931
11.82	6.54573
12.04	9.66838
12.26	4.88184
12.48	1.0771
12.7	4.88457
12.92	5.9186
13.14	9.05787
13.36	7.08979
13.58	6.96122
13.8	4.91649
14.02	10.7476
14.24	0.570747
14.46	4.24768
14.68	6.24945
14.9	6.1455
15.12	0.100286
15.34	4.80651
15.56	11.8913
15.78	3.89193
16	13.8463
16.22	24.8611
16.44	9.07896
16.66	2.18063
16.88	5.58589
17.1	4.36845
17.32	6.29151
17.54	6.31354
17.76	8.11897
17.98	3.2483
18.2	9.38443
18.42	6.17524
18.64	7.05312
18.86	5.76566
19.08	24.4012
19.3	6.26568
19.52	1.21377
19.74	8.13733
19.96	3.96735
20.18	8.91861
20.4	6.95085
20.62	7.20699
20.84	16.441
21.06	0.088401
21.28	9.00114
21.5	3.84136
21.72	3.74018
21.94	5.39227
22.16	7.95478
22.38	8.48611
22.6	8.03168
22.82	1.51798
23.04	20.6817
23.26	20.9378
23.48	33.6382
23.7	50.9245
23.92	27.2331
24.14	15.3291
24.36	4.72042
24.58	2.14699
24.8	4.54754
25.02	1.14106
25.24	3.20426
25.46	17.6462
25.68	31.3982
25.9	100.081
26.12	22.9649
26.34	9.85354
26.56	24.8796
26.78	9.16056
27	1.69809
27.22	10.6967
27.44	15.6701
27.66	23.6901
27.88	9.63765
28.1	5.30235
28.32	6.13281
28.54	6.75691
28.76	3.06278
28.98	3.20335
29.2	14.2348
29.42	0.923859
29.64	6.29701
29.86	9.53371
30.08	18.8466
30.3	12.1665
30.52	6.35733
30.74	0.725855
30.96	6.53146
31.18	37.308
31.4	38.2337
31.62	8.27109
31.84	6.35124
32.06	6.66071
32.28	12.0791
32.5	11.9514
32.72	57.0885
32.94	38.77
33.16	13.2127
33.38	10.0308
33.6	4.50877
33.82	3.85447
34.04	5.17835
34.26	2.60798
34.48	10.8404
34.7	7.09932
34.92	13.5992
35.14	10.4102
35.36	4.5131
35.58	2.44975
35.8	5.607
36.02	12.7985
36.24	10.8479
36.46	2.20394
36.68	6.55241
36.9	9.8796
37.12	13.2264
37.34	12.2625
37.56	9.10875
37.78	4.79862
38	3.07368
38.22	4.23536
38.44	16.432
38.66	6.51019
38.88	13.4934
39.1	7.53284
39.32	5.21765
39.54	6.73478
39.76	1.18129
39.98	14.9003
40.2	14.4697
40.42	14.9407
40.64	28.9715
40.86	17.1352
41.08	14.369
41.3	3.53999
41.52	10.8718
41.74	2.68681
41.96	2.40732
42.18	8.05083
42.4	3.68324
42.62	3.16879
42.84	5.6656
43.06	10.068
43.28	2.38051
43.5	8.02007
43.72	6.85025
43.94	28.505
44.16	15.5992
44.38	13.9378
44.6	4.52511
44.82	13.8362
45.04	9.04973
45.26	6.29275
45.48	8.58233
45.7	3.56179
45.92	10.3214
46.14	12.2547
46.36	5.28336
46.58	4.17175
46.8	3.71916
47.02	6.88454
47.24	1.96825
47.46	11.27
47.68	17.3056
47.9	8.29882
48.12	3.48132
48.34	0.761251
48.56	9.02977
48.78	11.1875
49	12.3286
49.22	8.74212
49.44	5.79322
49.66	8.35469
49.88	0.904832
50.1	9.9111
50.32	6.73553
50.54	7.39638
50.76	2.89198
50.98	12.2161
51.2	10.7091
51.42	4.40874
51.64	6.05124
51.86	9.50294
52.08	9.42695
52.3	14.4075
52.52	4.61593
52.74	16.8823
52.96	2.5861
53.18	5.96841
53.4	16.4393
53.62	9.95236
53.84	7.508
54.06	5.92096
54.28	5.3377
54.5	5.93261
54.72	6.69187
54.94	11.0353
55.16	1.31146
55.38	5.21293
55.6	1.46773
55.82	2.64722
56.04	7.94848
56.26	6.00169
56.48	0.105336
56.7	4.99799
56.92	4.1626
57.14	2.9369
57.36	15.9768
57.58	1.58686
57.8	0.377513
58.02	3.10906
58.24	7.10436
58.46	9.29955
58.68	9.4548
58.9	4.39998
59.12	9.57552
59.34	11.5267
59.56	3.65958
59.78	10.8677
60	19.5249
60.22	1.56578
60.44	0.998937
60.66	5.75918
60.88	0.437947
61.1	4.3072
61.32	5.31468
61.54	2.20501
61.76	5.92353
61.98	11.9074
62.2	8.7252
62.42	6.42299
62.64	2.19649
62.86	9.02075
63.08	3.78669
63.3	7.54377
63.52	5.33462
63.74	11.149
63.96	1.82599
64.18	8.57151
64.4	11.3295
64.62	9.14095
64.84	4.61383
65.06	11.8102
65.28	12.0465
65.5	12.6118
65.72	6.29439
65.94	7.55954
66.16	3.69961
66.38	4.72231
66.6	6.75442
66.82	1.22083
67.04	11.5533
67.26	10.9837
67.48	0.572965
67.7	14.3658
67.92	16.8524
68.14	10.2738
68.36	1.07278
68.58	2.95573
68.8	1.09957
69.02	13.7812
69.24	3.38422
69.46	10.8695
69.68	6.24924
69.9	3.60273
70.12	2.29288
70.34	7.68261
70.56	6.91235
70.78	2.27189
71	6.54904
71.22	11.6908
71.44	2.94808
71.66	8.80518
71.88	9.11832
72.1	2.08403
72.32	5.20325
72.54	1.65506
72.76	5.57084
72.98	4.47942
73.2	7.03586
73.42	7.91863
73.64	0.231526
73.86	0.306965
74.08	10.8167
74.3	3.32737
74.52	2.39032
74.74	6.4585
74.96	6.62209
75.18	9.81219
75.4	1.99554
75.62	5.21224
75.84	5.97669
76.06	3.336
76.28	1.47482
76.5	1.50393
76.72	3.63704
76.94	4.87391
77.16	5.88373
77.38	0.723327
77.6	11.622
77.82	3.45617
78.04	7.23715
78.26	10.5092
78.48	4.34514
78.7	1.11587
78.92	8.93026
79.14	9.7599
79.36	2.40595
79.58	4.13047
79.8	12.5406
80.02	7.59528
80.24	15.8381
80.46	5.22675
80.68	3.87217
80.9	1.93869
81.12	1.90335
81.34	4.23982
81.56	4.42365
81.78	12.4673
82	5.3216
82.22	6.1184
82.44	0.137453
82.66	2.11132
82.88	5.38331
83.1	2.64211
83.32	7.72612
83.54	6.82114
83.76	2.77101
83.98	10.7389
84.2	12.9274
84.42	13.2291
84.64	10.4255
84.86	8.1295
85.08	4.26214
85.3	7.11195
85.52	10.8264
85.74	4.6103
85.96	2.4442
86.18	2.56005
86.4	7.72225
86.62	4.5615
86.84	6.43334
87.06	7.29386
87.28	7.46693
87.5	5.36101
87.72	6.82726
87.94	12.8864
88.16	11.0026
88.38	7.01027
88.6	7.04915
88.82	1.13229
89.04	10.1638
89.26	9.32663
89.48	8.93176
89.7	2.31032
89.92	11.2358
