Measurement: Powder, Xray Data XY Processed
Mineral: Grossular
Rruff sample: R050081
Ideal chemistry: Ca_3_Al_2_(SiO_4_)_3_
Locality: Kayes Region, Mali
Source: Rock Currier
Description: Dark brown dodecahedron
Diffraction sample description: Powder
Measured chemistry: (Ca_2.92_Mg_0.07_Mn_0.01_)_Σ=3_(Al_1.04_Fe^3+^_0.89_Ti_0.07_)_Σ=2_((Si_0.98_Al_0.02_)_Σ=1_O_4_)_3_; trace amounts of Y
Cell parameters: a: 11.9740(4) b: 11.9740(4) c: 11.9740(4) alpha: 90. beta: 90. gamma: 90. volume: 1716.7(2) crystal system: cubic
x	intensity
5	0
5.22	13.243
5.44	20.392
5.66	20.314
5.88	15.094
6.1	11.598
6.32	17.89
6.54	7.42
6.76	15.896
6.98	20.484
7.2	14.641
7.42	1.895
7.64	27.859
7.86	17.43
8.08	22.255
8.3	8.57
8.52	14.651
8.74	10.276
8.96	0.123
9.18	8.304
9.4	14.812
9.62	21.503
9.84	8.49
10.06	3.27
10.28	6.135
10.5	11.508
10.72	0.952
10.94	4.229
11.16	11.033
11.38	15.754
11.6	3.536
11.82	4.071
12.04	8.412
12.26	6.226
12.48	16.319
12.7	7.425
12.92	11.169
13.14	1.52
13.36	9.066
13.58	11.242
13.8	21.854
14.02	19.24
14.24	14.594
14.46	8.155
14.68	15.738
14.9	13.089
15.12	8.997
15.34	13.557
15.56	5.346
15.78	12.262
16	14.41
16.22	18.847
16.44	7.942
16.66	16.952
16.88	5.625
17.1	12.343
17.32	6.781
17.54	4.858
17.76	12.681
17.98	3.257
18.2	5.052
18.42	28.2
18.64	14.361
18.86	0.215
19.08	8.238
19.3	7.449
19.52	17.464
19.74	22.891
19.96	15.94
20.18	18.847
20.4	5.67
20.62	3.432
20.84	21.477
21.06	16.336
21.28	1.38
21.5	8.372
21.72	6.661
21.94	15.801
22.16	15.767
22.38	10.107
22.6	13.518
22.82	15.386
23.04	23.163
23.26	1.269
23.48	9.495
23.7	3.274
23.92	2.671
24.14	11.203
24.36	14.376
24.58	12.099
24.8	12.824
25.02	3.682
25.24	3.062
25.46	19.319
25.68	12.996
25.9	9.94
26.12	10.65
26.34	3.998
26.56	15.207
26.78	7.753
27	2.623
27.22	9.702
27.44	11.998
27.66	9.448
27.88	2.437
28.1	17.214
28.32	8.076
28.54	0.927
28.76	16.669
28.98	2.629
29.2	3.219
29.42	17.798
29.64	15.749
29.86	235.308
30.08	28.39
30.3	1.887
30.52	1.076
30.74	12.105
30.96	3.089
31.18	10.13
31.4	17.222
31.62	9.073
31.84	15.91
32.06	1.896
32.28	1.412
32.5	7.268
32.72	2.433
32.94	1.264
33.16	14.076
33.38	51.15
33.6	140.222
33.82	19.271
34.04	7.904
34.26	3.153
34.48	5.942
34.7	5.308
34.92	20.468
35.14	71.341
35.36	16.379
35.58	11.173
35.8	7.933
36.02	14.346
36.24	5.563
36.46	20.35
36.68	46.29
36.9	52.063
37.12	29.722
37.34	8
37.56	8.433
37.78	9.957
38	2.999
38.22	15.573
38.44	63.11
38.66	19.017
38.88	20.152
39.1	11.429
39.32	13.538
39.54	8.102
39.76	11.245
39.98	11.435
40.2	14.047
40.42	11.303
40.64	16.95
40.86	15.771
41.08	9.245
41.3	66.779
41.52	18.436
41.74	7.616
41.96	4.495
42.18	10.981
42.4	14.983
42.62	26.151
42.84	14.982
43.06	11.631
43.28	17.302
43.5	21.098
43.72	7.949
43.94	14.901
44.16	9.08
44.38	8.775
44.6	13.91
44.82	8.099
45.04	6.216
45.26	30.123
45.48	34.008
45.7	3.45
45.92	2.477
46.14	15.937
46.36	8.655
46.58	17.414
46.8	89.147
47.02	6.509
47.24	5.21
47.46	14.063
47.68	6.856
47.9	16.064
48.12	31.86
48.34	1.518
48.56	15.592
48.78	8.595
49	10.642
49.22	23.086
49.44	1.267
49.66	2.052
49.88	9.095
50.1	11.44
50.32	15.889
50.54	29.698
50.76	7.076
50.98	9.876
51.2	12.07
51.42	13.133
51.64	8.476
51.86	15.358
52.08	22.65
52.3	8.732
52.52	9.766
52.74	12.123
52.96	34.235
53.18	13.966
53.4	4.125
53.62	10.083
53.84	9.004
54.06	5.589
54.28	6.163
54.5	7.977
54.72	16.475
54.94	7.997
55.16	23.766
55.38	72.352
55.6	15.59
55.82	11.92
56.04	2.973
56.26	9.813
56.48	6.805
56.7	13.831
56.92	26.283
57.14	8.272
57.36	1.148
57.58	171.678
57.8	71.754
58.02	20.582
58.24	5.328
58.46	4.373
58.68	7.667
58.9	3.811
59.12	16.533
59.34	18.585
59.56	5.035
59.78	2.256
60	8.4
60.22	4.927
60.44	17.132
60.66	19.131
60.88	16.476
61.1	5.659
61.32	20.438
61.54	7.111
61.76	16.979
61.98	47.638
62.2	62.17
62.42	12.185
62.64	7.952
62.86	14.093
63.08	17.441
63.3	6.988
63.52	13.156
63.74	16.019
63.96	9.137
64.18	10.841
64.4	1.798
64.62	8.778
64.84	13.567
65.06	2.116
65.28	3.981
65.5	3.868
65.72	11.534
65.94	3.269
66.16	6.831
66.38	19.142
66.6	2.406
66.82	8.84
67.04	3.635
67.26	10.615
67.48	2.563
67.7	8.286
67.92	13.59
68.14	8.702
68.36	7.411
68.58	15.886
68.8	9.574
69.02	15.224
69.24	10.502
69.46	5.842
69.68	15.634
69.9	21.343
70.12	17.347
70.34	35.625
70.56	20.433
70.78	1.466
71	5.66
71.22	7.695
71.44	1.869
71.66	4.365
71.88	3.064
72.1	15.058
72.32	32.49
72.54	24.117
72.76	8.727
72.98	17.657
73.2	5.542
73.42	16.294
73.64	7.318
73.86	11.354
74.08	1.671
74.3	29.913
74.52	24.174
74.74	21.757
74.96	11.381
75.18	8.269
75.4	2.557
75.62	11.278
75.84	18.572
76.06	11.88
76.28	10.998
76.5	17.174
76.72	12.653
76.94	26.11
77.16	18.291
77.38	12.266
77.6	13.647
77.82	13.594
78.04	8.991
78.26	21.833
78.48	14.58
78.7	8.13
78.92	10.327
79.14	11.39
79.36	20.49
79.58	8.457
79.8	3.176
80.02	12.19
80.24	7.213
80.46	17.342
80.68	13.679
80.9	14.824
81.12	8.78
81.34	15.887
81.56	16.633
81.78	9.39
82	13.391
82.22	15.794
82.44	26.524
82.66	10.075
82.88	18.114
83.1	3.832
83.32	14.905
83.54	3.578
83.76	8.649
83.98	1.703
84.2	9.595
84.42	25.311
84.64	8.264
84.86	6.877
85.08	3.459
85.3	6.411
85.52	9.21
85.74	13.16
85.96	2.968
86.18	12.227
86.4	11.118
86.62	9.224
86.84	0.854
87.06	12.748
87.28	20.724
87.5	25.946
87.72	63.562
87.94	40.794
88.16	38.54
88.38	16.573
88.6	4.01
88.82	9.851
89.04	7.125
89.26	2.491
89.48	19.313
89.7	9.472
89.92	1.701
