Measurement: Powder, Xray Data XY Processed
Mineral: Grossular
Rruff sample: R060453
Ideal chemistry: Ca_3_Al_2_(SiO_4_)_3_
Locality: unknown
Source: Gemological Institute of America
Description: Green colored fragment
Diffraction sample description: Powder
Measured chemistry: (Ca_2.91_Mg_0.05_Mn_0.04_)_Σ=3_(Al_1.96_Ti_0.02_[box]_0.02_)_Σ=2_(Si_1.00_O_4_)_3_; trace amounts of Fe and Cr
Cell parameters: a: 11.85155(9) b: 11.85155(9) c: 11.85155(9) alpha: 90. beta: 90. gamma: 90. volume: 1664.66(4) crystal system: cubic
x	intensity
5	0
5.22	0.406
5.44	9.481
5.66	11.212
5.88	5.25
6.1	11.913
6.32	1.045
6.54	6.173
6.76	3.997
6.98	9.822
7.2	12.147
7.42	8.695
7.64	7.267
7.86	14.578
8.08	12.195
8.3	4.026
8.52	11.659
8.74	0.164
8.96	0.75
9.18	1.496
9.4	1.865
9.62	2.995
9.84	4.022
10.06	3.002
10.28	0.9
10.5	0.134
10.72	7.734
10.94	5.706
11.16	0.438
11.38	5.426
11.6	3.051
11.82	6.01
12.04	7.992
12.26	8.044
12.48	3.076
12.7	7.213
12.92	5.474
13.14	1.482
13.36	0.665
13.58	0.127
13.8	3.166
14.02	1.544
14.24	2.778
14.46	2.979
14.68	9.932
14.9	8.034
15.12	5.028
15.34	2.131
15.56	1.139
15.78	0.13
16	1.056
16.22	1.246
16.44	5.085
16.66	4.12
16.88	3.222
17.1	0.568
17.32	2.499
17.54	3.543
17.76	3.586
17.98	3.745
18.2	3.847
18.42	6.898
18.64	1.894
18.86	9.072
19.08	2.045
19.3	0.074
19.52	1.066
19.74	7.133
19.96	0.867
20.18	2.189
20.4	8.181
20.62	4.125
20.84	3.119
21.06	1.184
21.28	6.091
21.5	3.152
21.72	5.168
21.94	1.34
22.16	5.347
22.38	6.415
22.6	5.427
22.82	3.383
23.04	2.5
23.26	3.317
23.48	3.429
23.7	0.377
23.92	6.271
24.14	3.297
24.36	0.025
24.58	5.901
24.8	1.814
25.02	3.777
25.24	1.742
25.46	0.737
25.68	4.862
25.9	0.799
26.12	0.829
26.34	0.023
26.56	7.062
26.78	1.226
27	3.179
27.22	3.212
27.44	1.374
27.66	4.297
27.88	4.284
28.1	3.189
28.32	3.237
28.54	3.139
28.76	2.903
28.98	0.665
29.2	3.433
29.42	4.322
29.64	4.252
29.86	7.998
30.08	10.965
30.3	137.105
30.52	11.156
30.74	7.043
30.96	9.093
31.18	6.347
31.4	0.451
31.62	0.72
31.84	2.898
32.06	0.835
32.28	2.828
32.5	0.659
32.72	1.307
32.94	5.943
33.16	4.735
33.38	6.729
33.6	7.601
33.82	99.131
34.04	55.015
34.26	15.76
34.48	5.704
34.7	3.831
34.92	2.879
35.14	0.968
35.36	9.396
35.58	35.626
35.8	8.769
36.02	6.72
36.24	5.861
36.46	2.978
36.68	0.048
36.9	8.08
37.12	7.364
37.34	57.362
37.56	10.285
37.78	4.055
38	1.978
38.22	1.88
38.44	0.826
38.66	12.062
38.88	47.116
39.1	5.236
39.32	2.31
39.54	4.362
39.76	0.553
39.98	2.73
40.2	4.016
40.42	2.128
40.64	1.144
40.86	0.223
41.08	2.125
41.3	1.262
41.52	6.326
41.74	21.358
41.96	17.139
42.18	12.045
42.4	1.955
42.62	0.821
42.84	2.794
43.06	2.791
43.28	3.891
43.5	4.783
43.72	1.892
43.94	3.995
44.16	0.225
44.38	7.351
44.6	2.476
44.82	3.745
45.04	4.861
45.26	5.936
45.48	3.081
45.7	4.995
45.92	2.007
46.14	4.86
46.36	3.589
46.58	0.507
46.8	6.366
47.02	3.18
47.24	15.052
47.46	77.944
47.68	10.007
47.9	4.979
48.12	6.041
48.34	5.183
48.56	4.364
48.78	8.578
49	4.555
49.22	2.637
49.44	4.758
49.66	1.779
49.88	0.833
50.1	2.848
50.32	1.78
50.54	1.695
50.76	3.525
50.98	0.553
51.2	2.422
51.42	1.349
51.64	1.339
51.86	1.217
52.08	1.285
52.3	4.253
52.52	2.091
52.74	2.982
52.96	2.922
53.18	3.933
53.4	5.833
53.62	111.926
53.84	9.091
54.06	5.13
54.28	4.066
54.5	0.074
54.72	0.985
54.94	0.075
55.16	2.824
55.38	8.72
55.6	5.758
55.82	5.692
56.04	53.381
56.26	10.14
56.48	3.971
56.7	3.766
56.92	2.674
57.14	10.575
57.36	1.47
57.58	7.545
57.8	1.527
58.02	4.508
58.24	43.74
58.46	126.965
58.68	5.364
58.9	5.598
59.12	3.705
59.34	0.063
59.56	6.392
59.78	2.671
60	5.813
60.22	4.956
60.44	3.067
60.66	3.961
60.88	2.953
61.1	4.694
61.32	3.6
61.54	1.494
61.76	0.77
61.98	6.118
62.2	3.028
62.42	2.033
62.64	9.955
62.86	14.884
63.08	5.887
63.3	6.91
63.52	0.004
63.74	4.053
63.96	11.177
64.18	6.31
64.4	2.493
64.62	0.506
64.84	4.496
65.06	0.569
65.28	1.639
65.5	1.616
65.72	4.633
65.94	4.546
66.16	2.597
66.38	3.532
66.6	6.655
66.82	0.586
67.04	5.672
67.26	1.719
67.48	2.804
67.7	3.897
67.92	1.956
68.14	2.968
68.36	6.046
68.58	2.039
68.8	3.123
69.02	3.009
69.24	0.005
69.46	1.873
69.68	3.902
69.9	0.232
70.12	4.568
70.34	0.487
70.56	3.479
70.78	1.458
71	1.515
71.22	21.55
71.44	8.517
71.66	5.523
71.88	0.597
72.1	0.504
72.32	2.491
72.54	1.467
72.76	5.555
72.98	6.623
73.2	67.485
73.42	51.304
73.64	2.212
73.86	1.312
74.08	1.239
74.3	1.124
74.52	7.147
74.74	4.187
74.96	4.124
75.18	17.125
75.4	16.029
75.62	5.143
75.84	0.236
76.06	6.13
76.28	2.263
76.5	7.448
76.72	3.573
76.94	2.641
77.16	0.689
77.38	0.737
77.6	2.815
77.82	2.025
78.04	5.039
78.26	2.021
78.48	4.062
78.7	3.97
78.92	1.897
79.14	1.849
79.36	1.885
79.58	0.867
79.8	0.868
80.02	6.907
80.24	10.783
80.46	6.796
80.68	2.727
80.9	3.721
81.12	2.792
81.34	1.803
81.56	1.831
81.78	4.877
82	4.854
82.22	1.189
82.44	0.744
82.66	2.727
82.88	1.799
83.1	12.837
83.32	4.806
83.54	0.21
83.76	2.801
83.98	1.179
84.2	5.741
84.42	2.84
84.64	0.932
84.86	1.934
85.08	0.063
85.3	3.859
85.52	3.807
85.74	4.803
85.96	1.834
86.18	0.033
86.4	6.011
86.62	1.962
86.84	0.857
87.06	2.75
87.28	2.796
87.5	3.733
87.72	3.631
87.94	4.53
88.16	5.354
88.38	4.141
88.6	2.037
88.82	3.978
89.04	11.902
89.26	29.749
89.48	1.77
89.7	5.098
89.92	1.709
