Measurement: Powder, Xray Data XY Processed
Mineral: Grossular
Rruff sample: R040066
Ideal chemistry: Ca_3_Al_2_(SiO_4_)_3_
Locality: Redding, Connecticut, USA
Source: University of Arizona Mineral Museum
Description: Reddish orange coarsely crystalline
Diffraction sample description: Powder
Measured chemistry: (Ca_2.90_Fe^2+^_0.08_Mn_0.02_)_Σ=3_(Al_1.87_Fe^3+^_0.13_)_Σ=2_(Si_1.00_O_4_)_3_
Cell parameters: a: 11.8665(2) b: 11.8665(2) c: 11.8665(2) alpha: 90. beta: 90. gamma: 90. volume: 1670.9(1) crystal system: cubic
x	intensity
5	0
5.22	7.704
5.44	2.938
5.66	10.975
5.88	17.463
6.1	2.918
6.32	3.051
6.54	4.012
6.76	8.435
6.98	7.501
7.2	4.534
7.42	21.773
7.64	11.364
7.86	13.569
8.08	13.667
8.3	11.469
8.52	12.148
8.74	3.942
8.96	13.427
9.18	15.074
9.4	11.544
9.62	6.722
9.84	13.04
10.06	8.314
10.28	4.475
10.5	4.859
10.72	6.657
10.94	9.456
11.16	6.231
11.38	4.952
11.6	0.887
11.82	10.77
12.04	12.781
12.26	5.986
12.48	18.977
12.7	2.724
12.92	11.351
13.14	15.385
13.36	5.532
13.58	4.489
13.8	3.854
14.02	2.916
14.24	15.181
14.46	3.104
14.68	13.312
14.9	7.272
15.12	6.488
15.34	2.357
15.56	12.617
15.78	6.821
16	12.502
16.22	4.717
16.44	15.785
16.66	11.94
16.88	8.662
17.1	20.482
17.32	7.411
17.54	19.519
17.76	8.818
17.98	16.8
18.2	13.432
18.42	5.32
18.64	1.047
18.86	15.472
19.08	18.743
19.3	7.944
19.52	8.046
19.74	9.159
19.96	5.168
20.18	9.322
20.4	17.354
20.62	4.446
20.84	4.677
21.06	8.004
21.28	18.557
21.5	4.957
21.72	12.562
21.94	6.701
22.16	0.842
22.38	2.768
22.6	12.746
22.82	6.69
23.04	10.867
23.26	14.633
23.48	7.32
23.7	0.44
23.92	13.487
24.14	8.825
24.36	15.002
24.58	5.231
24.8	7.142
25.02	8.199
25.24	16.455
25.46	9.377
25.68	17.531
25.9	6.657
26.12	10.645
26.34	8.618
26.56	4.852
26.78	8.715
27	7.539
27.22	13.786
27.44	13.895
27.66	3.023
27.88	0.912
28.1	4.679
28.32	12.383
28.54	15.094
28.76	11.668
28.98	1.853
29.2	5.159
29.42	7.589
29.64	7.137
29.86	5.53
30.08	95.979
30.3	50.527
30.52	10.57
30.74	6.089
30.96	4.835
31.18	7.476
31.4	6.094
31.62	6.33
31.84	0.524
32.06	0.663
32.28	6.602
32.5	4.989
32.72	12.51
32.94	12.039
33.16	2.405
33.38	8.89
33.6	25.606
33.82	1131.23
34.04	25.309
34.26	11.874
34.48	2.86
34.7	8.103
34.92	9.907
35.14	8.53
35.36	16.062
35.58	56.479
35.8	9.378
36.02	2.282
36.24	9.376
36.46	14.421
36.68	16.05
36.9	7.002
37.12	255.979
37.34	18.834
37.56	16.514
37.78	10.299
38	6.526
38.22	1.178
38.44	10.093
38.66	83.256
38.88	20.517
39.1	3.771
39.32	20.354
39.54	6.789
39.76	4.113
39.98	7.261
40.2	9.673
40.42	10.478
40.64	5.999
40.86	2.922
41.08	7.875
41.3	5.447
41.52	8.066
41.74	147.614
41.96	5.592
42.18	3.855
42.4	11.981
42.62	3.124
42.84	1.045
43.06	22.217
43.28	29.327
43.5	13.309
43.72	12.751
43.94	8.472
44.16	8.393
44.38	2.797
44.6	9.999
44.82	9.482
45.04	10.506
45.26	6.594
45.48	5.361
45.7	9.15
45.92	1.665
46.14	7.299
46.36	6.385
46.58	0.855
46.8	7.427
47.02	3.109
47.24	226.77
47.46	20.295
47.68	1.473
47.9	4.834
48.12	10.967
48.34	10.221
48.56	29.588
48.78	2.936
49	2.706
49.22	11.711
49.44	20.817
49.66	11.117
49.88	13.524
50.1	20.686
50.32	9.01
50.54	6.426
50.76	11.975
50.98	3.037
51.2	10.014
51.42	2.044
51.64	6.341
51.86	10.311
52.08	5.209
52.3	15.023
52.52	1.667
52.74	6.211
52.96	13.138
53.18	0.065
53.4	11.158
53.62	56.062
53.84	20.108
54.06	11.704
54.28	9.438
54.5	19.394
54.72	7.298
54.94	8.188
55.16	12.983
55.38	8.972
55.6	16.509
55.82	103.077
56.04	112.827
56.26	12.447
56.48	5.389
56.7	2.606
56.92	14.312
57.14	17.093
57.36	7.907
57.58	1.829
57.8	17.474
58.02	20.308
58.24	147.672
58.46	27.861
58.68	0.163
58.9	0.802
59.12	5.705
59.34	9.227
59.56	1.676
59.78	2.341
60	1.973
60.22	6.781
60.44	10.279
60.66	1.415
60.88	6.482
61.1	11.59
61.32	6.091
61.54	30.969
61.76	10.728
61.98	13.121
62.2	9.669
62.42	6.385
62.64	89.918
62.86	21.506
63.08	7.244
63.3	10.35
63.52	7.219
63.74	22.394
63.96	7.459
64.18	0.709
64.4	0.368
64.62	3.294
64.84	8.046
65.06	5.251
65.28	5.641
65.5	4.865
65.72	4.929
65.94	5.78
66.16	5.362
66.38	6.516
66.6	17.477
66.82	6.313
67.04	9.861
67.26	3.861
67.48	0.922
67.7	7.664
67.92	0.639
68.14	7.82
68.36	9.893
68.58	12.213
68.8	2.213
69.02	6.107
69.24	9.928
69.46	7.832
69.68	13.727
69.9	6.539
70.12	0.577
70.34	13.107
70.56	9.341
70.78	17.333
71	62.472
71.22	45.312
71.44	12.292
71.66	8.229
71.88	15.165
72.1	11.089
72.32	6.999
72.54	12.414
72.76	4.466
72.98	36.835
73.2	49.647
73.42	2.439
73.64	4.443
73.86	14.376
74.08	10.344
74.3	8.563
74.52	5.693
74.74	8.26
74.96	2.849
75.18	10.815
75.4	9.056
75.62	7.06
75.84	14.955
76.06	15.257
76.28	9.494
76.5	7.855
76.72	3.82
76.94	1.961
77.16	9.69
77.38	7.91
77.6	17.076
77.82	9.522
78.04	12.249
78.26	10.135
78.48	7.417
78.7	3.674
78.92	9.642
79.14	14.705
79.36	13.69
79.58	6.821
79.8	8.668
80.02	42.771
80.24	9.355
80.46	2.847
80.68	8.492
80.9	8.041
81.12	7.726
81.34	12.053
81.56	0.934
81.78	1.761
82	14.732
82.22	8.759
82.44	12.53
82.66	0.967
82.88	8.925
83.1	12.116
83.32	15.227
83.54	3.338
83.76	8.439
83.98	10.526
84.2	11.622
84.42	5.939
84.64	8.245
84.86	11.838
85.08	4.506
85.3	6.01
85.52	3.121
85.74	11.854
85.96	1.711
86.18	14.328
86.4	10.38
86.62	5.259
86.84	5.842
87.06	11.669
87.28	7.436
87.5	3.269
87.72	4.541
87.94	2.297
88.16	5.27
88.38	10.255
88.6	29.167
88.82	99.162
89.04	175.919
89.26	14.204
89.48	0.237
89.7	18.719
89.92	14.822
