Measurement: Powder, Xray Data XY Processed
Mineral: Grossular
Rruff sample: R060443
Ideal chemistry: Ca_3_Al_2_(SiO_4_)_3_
Locality: unknown
Source: Gemological Institute of America
Description: Yellowish tan colored single crystal
Diffraction sample description: Powder
Measured chemistry: (Ca_2.92_Mn_0.03_Mg_0.03_Fe^2+^_0.02_)_Σ=3_(Al_1.86_Fe^3+^_0.14_)_Σ=2_(Si_1.00_O_4_)_3_; trace amounts of Ti
Cell parameters: a: 11.8636(1) b: 11.8636(1) c: 11.8636(1) alpha: 90. beta: 90. gamma: 90. volume: 1669.77(6) crystal system: cubic
x	intensity
5	0
5.22	13.138
5.44	0.709
5.66	24.142
5.88	14.954
6.1	2.011
6.32	9.902
6.54	15.483
6.76	8.492
6.98	11.677
7.2	2.989
7.42	12.455
7.64	10.463
7.86	12.154
8.08	3.732
8.3	11.748
8.52	3.018
8.74	5.199
8.96	1.502
9.18	2.607
9.4	6.782
9.62	11.835
9.84	0.584
10.06	7.738
10.28	11.554
10.5	4.081
10.72	1.5
10.94	5.826
11.16	9.975
11.38	7.159
11.6	5.323
11.82	11.312
12.04	6.463
12.26	7.607
12.48	3.932
12.7	10.892
12.92	0.063
13.14	13.298
13.36	3.528
13.58	7.728
13.8	8.89
14.02	7.996
14.24	2.076
14.46	15.399
14.68	2.608
14.9	1.562
15.12	4.597
15.34	0.045
15.56	6.126
15.78	4.91
16	5.151
16.22	3.036
16.44	9.322
16.66	7.328
16.88	8.196
17.1	4.262
17.32	5.271
17.54	6.279
17.76	0.107
17.98	3.166
18.2	1.2
18.42	1.205
18.64	11.269
18.86	6.31
19.08	1.406
19.3	5.622
19.52	5.602
19.74	4.765
19.96	3.024
20.18	0.001
20.4	1.076
20.62	9.184
20.84	0.27
21.06	1.296
21.28	7.121
21.5	3.117
21.72	0.778
21.94	3.448
22.16	0.324
22.38	11.315
22.6	5.149
22.82	6.309
23.04	0.753
23.26	5.166
23.48	6.25
23.7	1.335
23.92	7.392
24.14	2.173
24.36	6.108
24.58	0.946
24.8	2.302
25.02	7.414
25.24	7.381
25.46	6.498
25.68	10.425
25.9	3.456
26.12	3.471
26.34	10.535
26.56	0.354
26.78	7.556
27	2.557
27.22	14.175
27.44	6.278
27.66	2.158
27.88	0.071
28.1	8.778
28.32	4.45
28.54	3.33
28.76	2.143
28.98	0.865
29.2	1.66
29.42	5.508
29.64	9.572
29.86	1.372
30.08	12.549
30.3	53.846
30.52	20.356
30.74	1.643
30.96	3.522
31.18	5.463
31.4	2.533
31.62	3.516
31.84	5.319
32.06	5.32
32.28	1.828
32.5	2.568
32.72	4.047
32.94	5.357
33.16	5.096
33.38	3.248
33.6	7.01
33.82	439.924
34.04	24.252
34.26	5.633
34.48	3.496
34.7	3.688
34.92	7.039
35.14	2.339
35.36	10.028
35.58	34.115
35.8	13.152
36.02	6.29
36.24	3.463
36.46	2.365
36.68	1.777
36.9	1.297
37.12	38.659
37.34	7.662
37.56	1.527
37.78	5.223
38	12.304
38.22	0.369
38.44	0.339
38.66	11.714
38.88	26.686
39.1	1.266
39.32	4.653
39.54	0.161
39.76	2.929
39.98	4.087
40.2	2.1
40.42	1.093
40.64	12.879
40.86	8.611
41.08	10.706
41.3	8.83
41.52	4.764
41.74	71.558
41.96	3.872
42.18	0.625
42.4	6.541
42.62	3.535
42.84	6.632
43.06	4.241
43.28	16.904
43.5	3.789
43.72	8.001
43.94	5.207
44.16	6.411
44.38	5.098
44.6	8.203
44.82	7.378
45.04	7.485
45.26	9.38
45.48	2.362
45.7	10.246
45.92	0.145
46.14	1.611
46.36	5.475
46.58	4.197
46.8	4.074
47.02	9.169
47.24	82.164
47.46	17.055
47.68	4.329
47.9	1.436
48.12	7.624
48.34	1.03
48.56	20.253
48.78	1.574
49	8.751
49.22	1.767
49.44	1.308
49.66	9.684
49.88	7.736
50.1	4.641
50.32	2.538
50.54	4.481
50.76	2.25
50.98	0.142
51.2	1.044
51.42	2.973
51.64	3.067
51.86	4.156
52.08	3.352
52.3	2.309
52.52	10.216
52.74	2.062
52.96	5.287
53.18	8.335
53.4	7.275
53.62	18.287
53.84	9.336
54.06	0.366
54.28	4.138
54.5	0.194
54.72	9.136
54.94	1.07
55.16	6.945
55.38	2.78
55.6	7.723
55.82	15.746
56.04	53.633
56.26	5.638
56.48	9.308
56.7	4.11
56.92	3.78
57.14	2.33
57.36	3.556
57.58	9.491
57.8	4.423
58.02	5.473
58.24	168.581
58.46	20.537
58.68	1.6
58.9	2.823
59.12	5.977
59.34	4.339
59.56	1.522
59.78	5.041
60	2.409
60.22	3.696
60.44	1.667
60.66	3.491
60.88	4.476
61.1	4.346
61.32	1.786
61.54	11.101
61.76	6.832
61.98	2.784
62.2	3.745
62.42	2.583
62.64	55.467
62.86	26.496
63.08	1.72
63.3	0.946
63.52	3.932
63.74	15.158
63.96	9.231
64.18	6.329
64.4	1.673
64.62	4.221
64.84	1.047
65.06	10.115
65.28	4.461
65.5	1.629
65.72	4.507
65.94	6.556
66.16	9.433
66.38	0.399
66.6	9.726
66.82	3.697
67.04	3.585
67.26	4.587
67.48	4.782
67.7	5.474
67.92	2.284
68.14	10.343
68.36	5.6
68.58	4.681
68.8	8.445
69.02	5.434
69.24	8.535
69.46	3.56
69.68	0.588
69.9	7.274
70.12	2.148
70.34	0.97
70.56	2.901
70.78	2.298
71	13.775
71.22	12.907
71.44	5.835
71.66	5.698
71.88	8.633
72.1	0.46
72.32	4.428
72.54	5.417
72.76	2.613
72.98	6.652
73.2	16.509
73.42	4.579
73.64	3.342
73.86	2.661
74.08	11.232
74.3	4.19
74.52	6.315
74.74	1.331
74.96	0.428
75.18	11.18
75.4	12.309
75.62	4.343
75.84	6.149
76.06	8.257
76.28	7.513
76.5	0.62
76.72	10.952
76.94	4.898
77.16	17.068
77.38	2.16
77.6	1.249
77.82	6.226
78.04	2.251
78.26	3.275
78.48	2.469
78.7	1.388
78.92	2.48
79.14	8.318
79.36	10.602
79.58	11.486
79.8	0.423
80.02	5.685
80.24	21.596
80.46	6.744
80.68	1.717
80.9	10.561
81.12	2.662
81.34	0.565
81.56	7.655
81.78	4.566
82	5.552
82.22	5.558
82.44	4.564
82.66	1.544
82.88	8.522
83.1	4.527
83.32	4.564
83.54	2.532
83.76	5.728
83.98	6.66
84.2	7.648
84.42	10.678
84.64	4.491
84.86	1.337
85.08	5.301
85.3	4.302
85.52	7.33
85.74	3.141
85.96	4.087
86.18	3.982
86.4	2.159
86.62	2.079
86.84	1.992
87.06	0.075
87.28	1.919
87.5	8.843
87.72	10.626
87.94	3.466
88.16	2.485
88.38	0.502
88.6	3.334
88.82	58.144
89.04	15.094
89.26	3.114
89.48	6.374
89.7	2.628
89.92	5.149
