Measurement: Powder, Xray Data XY Processed
Mineral: Grossular
Rruff sample: R070551
Ideal chemistry: Ca_3_Al_2_(SiO_4_)_3_
Locality: Mali
Source: www.multicolour.com
Description: Green gem fragments
Diffraction sample description: Powder
Measured chemistry: (Ca_2.95_Mg_0.04_Mn_0.01_)_Σ=3_(Al_1.63_Fe^3+^_0.37_)_Σ=2_(Si_1.00_O_4_)_3_
Cell parameters: a: 11.88854(8) b: 11.88854(8) c: 11.88854(8) alpha: 90 beta: 90 gamma: 90 volume: 1680.29(3) crystal system: cubic
x	intensity
5	0
5.22	10.7599
5.44	0.194897
5.66	13.216
5.88	16.8321
6.1	4.46384
6.32	12.4948
6.54	17.3785
6.76	9.17333
6.98	13.4314
7.2	11.6998
7.42	7.94092
7.64	14.9805
7.86	21.4931
8.08	4.2488
8.3	8.96203
8.52	9.70185
8.74	12.4004
8.96	9.95951
9.18	10.7355
9.4	8.96053
9.62	2.20915
9.84	7.76179
10.06	6.10872
10.28	8.21922
10.5	12.2533
10.72	1.44393
10.94	2.23449
11.16	0.859192
11.38	6.28312
11.6	0.221073
11.82	5.19391
12.04	6.17022
12.26	0.193689
12.48	12.8884
12.7	20.6421
12.92	2.99621
13.14	11.85
13.36	12.1212
13.58	10.365
13.8	2.96635
14.02	12.9527
14.24	8.05944
14.46	14.3835
14.68	12.5457
14.9	1.54585
15.12	3.16023
15.34	7.00349
15.56	0.11624
15.78	8.52478
16	1.54612
16.22	8.25526
16.44	7.504
16.66	7.8304
16.88	1.22472
17.1	11.3898
17.32	8.30185
17.54	12.5247
17.76	19.5887
17.98	2.62324
18.2	8.44289
18.42	11.3286
18.64	12.1784
18.86	9.10773
19.08	3.69002
19.3	10.0166
19.52	1.92101
19.74	1.81864
19.96	3.43267
20.18	10.0071
20.4	14.8862
20.62	6.6259
20.84	0.543949
21.06	21.9192
21.28	9.0546
21.5	4.47695
21.72	14.9119
21.94	2.72969
22.16	11.9626
22.38	16.4678
22.6	6.7942
22.82	15.9119
23.04	5.95215
23.26	8.39183
23.48	4.13364
23.7	10.8808
23.92	5.61075
24.14	3.43447
24.36	6.63261
24.58	10.5503
24.8	14.2811
25.02	8.05532
25.24	5.2856
25.46	0.362999
25.68	15.0924
25.9	1.90375
26.12	13.8326
26.34	4.78284
26.56	1.77868
26.78	2.49721
27	8.90655
27.22	3.71076
27.44	14.8697
27.66	4.65899
27.88	4.14055
28.1	0.134645
28.32	6.72171
28.54	4.70642
28.76	5.52114
28.98	3.11222
29.2	14.6243
29.42	0.617203
29.64	12.3703
29.86	11.7558
30.08	465.852
30.3	16.6853
30.52	23.1485
30.74	3.75931
30.96	15.9514
31.18	7.86892
31.4	10.9675
31.62	15.9992
31.84	1.08384
32.06	14.6799
32.28	0.449499
32.5	3.79703
32.72	2.1116
32.94	9.26823
33.16	16.2603
33.38	9.66431
33.6	45.1861
33.82	696.082
34.04	13.0059
34.26	3.82057
34.48	9.36159
34.7	0.146812
34.92	20.7503
35.14	15.2073
35.36	20.1298
35.58	14.4319
35.8	12.7314
36.02	14.2331
36.24	10.0267
36.46	6.66528
36.68	7.55546
36.9	16.2587
37.12	68.1319
37.34	4.45776
37.56	3.34429
37.78	15.7152
38	20.0671
38.22	11.3177
38.44	3.37147
38.66	133.253
38.88	9.78323
39.1	8.07698
39.32	11.2265
39.54	11.3619
39.76	5.56923
39.98	3.88172
40.2	19.3495
40.42	4.94442
40.64	1.64704
40.86	5.79441
41.08	7.22312
41.3	7.01736
41.52	14.8017
41.74	102.688
41.96	3.40288
42.18	3.23283
42.4	13.9114
42.62	8.68754
42.84	2.68903
43.06	28.5023
43.28	7.76767
43.5	13.8031
43.72	0.959421
43.94	11.3659
44.16	11.5497
44.38	2.24156
44.6	9.98851
44.82	4.35885
45.04	4.15549
45.26	9.00781
45.48	5.70391
45.7	2.47646
45.92	2.49172
46.14	10.1401
46.36	14.0658
46.58	8.16939
46.8	7.39707
47.02	27.99
47.24	108.745
47.46	11.6694
47.68	4.80063
47.9	9.97892
48.12	6.17711
48.34	3.85987
48.56	29.568
48.78	7.01966
49	5.96492
49.22	4.18044
49.44	11.19
49.66	15.2386
49.88	3.95685
50.1	16.0579
50.32	5.34316
50.54	20.274
50.76	0.019947
50.98	12.4744
51.2	3.50316
51.42	8.62139
51.64	8.53145
51.86	0.443577
52.08	24.4175
52.3	8.40078
52.52	8.20226
52.74	11.3235
52.96	6.42056
53.18	2.87521
53.4	159.765
53.62	2.90493
53.84	2.85046
54.06	9.79607
54.28	11.6801
54.5	13.3634
54.72	16.0622
54.94	8.90468
55.16	3.04714
55.38	1.24002
55.6	20.681
55.82	68.569
56.04	17.1009
56.26	5.08027
56.48	9.28849
56.7	2.21484
56.92	16.3244
57.14	6.50418
57.36	9.62735
57.58	9.78636
57.8	19.5697
58.02	198.816
58.24	191.666
58.46	0.295534
58.68	5.2587
58.9	10.6132
59.12	18.0346
59.34	3.28537
59.56	11.7767
59.78	14.9087
60	8.41306
60.22	5.35933
60.44	3.39618
60.66	5.1949
60.88	11.1696
61.1	0.132954
61.32	8.93994
61.54	18.7039
61.76	13.6608
61.98	1.7271
62.2	7.43372
62.42	27.9104
62.64	28.2023
62.86	15.4465
63.08	9.2722
63.3	4.44857
63.52	1.6272
63.74	21.0563
63.96	5.26618
64.18	7.27356
64.4	10.6502
64.62	10.387
64.84	8.22581
65.06	4.87754
65.28	0.445473
65.5	4.164
65.72	10.8578
65.94	3.10745
66.16	4.95984
66.38	5.2711
66.6	4.46362
66.82	3.25961
67.04	11.6318
67.26	4.99056
67.48	4.1973
67.7	0.908123
67.92	17.0884
68.14	5.23379
68.36	16.9817
68.58	1.78676
68.8	5.92621
69.02	2.72557
69.24	1.74647
69.46	15.3744
69.68	0.993605
69.9	0.382521
70.12	6.95676
70.34	5.74973
70.56	0.444206
70.78	14.8084
71	19.9276
71.22	8.00825
71.44	3.97567
71.66	1.73907
71.88	7.73826
72.1	7.70143
72.32	7.16118
72.54	6.34438
72.76	12.238
72.98	47.9352
73.2	26.4571
73.42	3.6304
73.64	14.1605
73.86	0.018478
74.08	7.90002
74.3	1.30126
74.52	3.63287
74.74	1.9995
74.96	36.9001
75.18	16.0189
75.4	7.3177
75.62	5.78399
75.84	12.9541
76.06	10.9297
76.28	9.15615
76.5	8.22346
76.72	5.50917
76.94	8.34055
77.16	4.46944
77.38	10.2188
77.6	3.38445
77.82	8.30708
78.04	4.21249
78.26	11.1367
78.48	5.72598
78.7	13.3769
78.92	6.15818
79.14	11.1352
79.36	9.19828
79.58	5.39096
79.8	20.8733
80.02	11.1825
80.24	1.07904
80.46	5.08754
80.68	8.78141
80.9	8.83229
81.12	12.0339
81.34	7.34836
81.56	12.1581
81.78	10.2866
82	11.2309
82.22	17.4675
82.44	0.150005
82.66	0.008173
82.88	9.2996
83.1	10.2859
83.32	18.2131
83.54	12.9595
83.76	7.16929
83.98	15.7591
84.2	6.84346
84.42	0.907137
84.64	1.26998
84.86	9.89659
85.08	4.99571
85.3	3.75235
85.52	8.89624
85.74	6.86019
85.96	10.1252
86.18	10.9563
86.4	6.56395
86.62	2.58861
86.84	1.49804
87.06	4.79987
87.28	2.93018
87.5	5.76956
87.72	8.63784
87.94	1.34579
88.16	0.273973
88.38	19.7131
88.6	80.1634
88.82	51.6526
89.04	19.5313
89.26	6.81554
89.48	3.28693
89.7	14.9386
89.92	2.63321
