Measurement: Powder, Xray Data XY Processed
Mineral: Grunerite
Rruff sample: R070204
Ideal chemistry: [box]Fe^2+^_2_Fe^2+^_5_Si_8_O_22_(OH)_2_
Locality: Penge mine, Transvaal, South Africa
Source: California Institute of Technology
Description: Aggregate of tan colored parallel fibers. The Penge mine is the source of UICC standard for amosite
Diffraction sample description: Powder
Measured chemistry: ([box]_0.98_Na_0.02_)_Σ=1_(Fe_5.24_Mg_1.59_Mn_0.08_[box]_0.03_Al_0.04_Ca_0.02_)_Σ=7_Si_8.00_O_22_(OH)_2_ ; OH estimated by difference and charge balance
Cell parameters: a: 9.5750(2) b: 18.3162(2) c: 5.1990(3) alpha: 90 beta: 102.650(3) gamma: 90 volume: 889.66(5) crystal system: monoclinic
x	intensity
5	0
5.22	14.2325
5.44	20.7241
5.66	13.9795
5.88	30.6018
6.1	11.2706
6.32	25.2966
6.54	17.5367
6.76	45.399
6.98	24.7749
7.2	19.2868
7.42	21.5447
7.64	1.1887
7.86	22.1775
8.08	2.80895
8.3	2.10678
8.52	19.5162
8.74	19.1239
8.96	34.9326
9.18	14.5555
9.4	28.9904
9.62	236.17
9.84	39.4858
10.06	38.2751
10.28	63.731
10.5	362.96
10.72	592.977
10.94	38.9757
11.16	0.612106
11.38	12.3467
11.6	8.48567
11.82	25.4668
12.04	40.0485
12.26	58.5124
12.48	34.7393
12.7	6.86943
12.92	51.021
13.14	21.6494
13.36	42.7916
13.58	41.0031
13.8	36.0495
14.02	26.7531
14.24	45.3221
14.46	23.5765
14.68	27.1821
14.9	4.11389
15.12	17.8419
15.34	25.7274
15.56	14.2191
15.78	27.1401
16	12.3108
16.22	9.49417
16.44	38.453
16.66	16.4963
16.88	22.7816
17.1	24.0092
17.32	48.4948
17.54	24.7517
17.76	16.2148
17.98	2.31921
18.2	0.551514
18.42	3.79007
18.64	8.76244
18.86	64.3452
19.08	113.432
19.3	39.6012
19.52	26.9802
19.74	25.079
19.96	14.9981
20.18	15.8887
20.4	17.6769
20.62	31.8298
20.84	28.4694
21.06	0.249649
21.28	56.859
21.5	20.903
21.72	1.53053
21.94	13.1624
22.16	28.0388
22.38	32.4866
22.6	15.6872
22.82	22.2278
23.04	13.9932
23.26	26.3635
23.48	30.7975
23.7	22.5005
23.92	7.14549
24.14	28.1802
24.36	26.969
24.58	16.6226
24.8	25.6852
25.02	14.0289
25.24	20.2179
25.46	22.9474
25.68	45.3384
25.9	39.8561
26.12	36.3265
26.34	31.853
26.56	35.8061
26.78	8.24181
27	18.6029
27.22	249.2
27.44	10.8292
27.66	4.57956
27.88	26.5109
28.1	30.3833
28.32	25.5807
28.54	26.2517
28.76	45.0143
28.98	287.232
29.2	346.779
29.42	55.8255
29.64	1.81819
29.86	25.1464
30.08	9.9077
30.3	26.7687
30.52	28.5651
30.74	10.7844
30.96	14.5266
31.18	21.4371
31.4	16.0696
31.62	17.3204
31.84	4.10657
32.06	25.6196
32.28	149.566
32.5	45.5337
32.72	25.4451
32.94	14.7643
33.16	2.92119
33.38	30.0707
33.6	18.024
33.82	6.9389
34.04	29.5764
34.26	32.2512
34.48	13.3592
34.7	25.6458
34.92	3.8151
35.14	61.1632
35.36	32.7396
35.58	25.4929
35.8	19.7786
36.02	1.75812
36.24	11.8707
36.46	11.5784
36.68	14.3807
36.9	7.88932
37.12	26.8375
37.34	12.0441
37.56	18.5971
37.78	24.7103
38	20.9798
38.22	12.3592
38.44	19.1907
38.66	22.9891
38.88	4.51394
39.1	8.24017
39.32	42.9633
39.54	0.993599
39.76	15.1487
39.98	27.925
40.2	7.86802
40.42	4.41125
40.64	37.65
40.86	22.5726
41.08	38.9967
41.3	14.4759
41.52	23.9311
41.74	16.6924
41.96	33.5651
42.18	14.8036
42.4	21.3044
42.62	11.6292
42.84	0.18132
43.06	39.3205
43.28	37.9282
43.5	23.7181
43.72	13.5166
43.94	29.8436
44.16	42.3469
44.38	17.898
44.6	5.87389
44.82	33.6826
45.04	5.38272
45.26	19.1159
45.48	6.63194
45.7	13.2759
45.92	17.0111
46.14	28.9082
46.36	17.1448
46.58	21.0285
46.8	3.3743
47.02	14.3115
47.24	19.2128
47.46	8.56698
47.68	13.0136
47.9	9.49876
48.12	7.99585
48.34	9.86361
48.56	27.0055
48.78	20.1806
49	25.8308
49.22	7.70078
49.44	24.4295
49.66	28.5263
49.88	23.5912
50.1	14.643
50.32	3.96191
50.54	3.06592
50.76	20.6436
50.98	24.1644
51.2	7.08019
51.42	12.1474
51.64	5.82223
51.86	27.0992
52.08	19.7012
52.3	22.4762
52.52	30.9457
52.74	16.2996
52.96	39.7712
53.18	27.0714
53.4	8.34054
53.62	12.6389
53.84	44.6292
54.06	28.9558
54.28	12.2606
54.5	17.1353
54.72	5.48784
54.94	7.12888
55.16	13.7304
55.38	7.26321
55.6	5.1119
55.82	18.1571
56.04	75.6157
56.26	44.7844
56.48	18.8934
56.7	7.29373
56.92	27.7363
57.14	7.37313
57.36	0.010048
57.58	29.399
57.8	18.1764
58.02	26.2518
58.24	10.4933
58.46	4.62328
58.68	30.8853
58.9	34.8817
59.12	29.7338
59.34	53.6213
59.56	17.6141
59.78	7.66099
60	21.4259
60.22	12.6529
60.44	15.239
60.66	70.1681
60.88	32.7819
61.1	12.924
61.32	25.1392
61.54	21.0776
61.76	26.7192
61.98	31.7593
62.2	20.2025
62.42	13.4809
62.64	2.98533
62.86	11.9924
63.08	0.24794
63.3	48.8753
63.52	34.252
63.74	10.4498
63.96	25.9468
64.18	10.2869
64.4	25.614
64.62	3.69726
64.84	33.1529
65.06	18.3086
65.28	7.56162
65.5	6.40126
65.72	7.21216
65.94	12.8865
66.16	23.397
66.38	16.9979
66.6	14.6757
66.82	2.59734
67.04	8.31955
67.26	9.8159
67.48	6.46133
67.7	13.5582
67.92	13.8245
68.14	30.4281
68.36	32.8118
68.58	1.01044
68.8	4.55422
69.02	6.45283
69.24	24.3834
69.46	11.6493
69.68	24.4146
69.9	15.1026
70.12	6.98207
70.34	10.9818
70.56	24.1999
70.78	34.556
71	27.3581
71.22	16.5251
71.44	7.24794
71.66	10.3438
71.88	19.7119
72.1	17.4922
72.32	13.9795
72.54	11.4415
72.76	21.961
72.98	26.9062
73.2	21.8082
73.42	10.7104
73.64	6.05808
73.86	23.2147
74.08	25.2214
74.3	13.4585
74.52	11.5072
74.74	13.4301
74.96	4.24726
75.18	6.4563
75.4	21.6425
75.62	19.1243
75.84	9.84283
76.06	22.7614
76.28	18.7502
76.5	15.7873
76.72	16.5853
76.94	19.925
77.16	9.60136
77.38	39.8469
77.6	10.2216
77.82	12.6205
78.04	15.6455
78.26	4.27496
78.48	8.35693
78.7	10.0983
78.92	31.7178
79.14	15.5483
79.36	10.7182
79.58	20.9349
79.8	2.14708
80.02	11.226
80.24	1.83865
80.46	18.5581
80.68	17.1838
80.9	8.41917
81.12	19.2855
81.34	10.7324
81.56	11.3615
81.78	28.276
82	24.2762
82.22	2.43106
82.44	19.9731
82.66	12.5906
82.88	8.94307
83.1	23.2767
83.32	10.8458
83.54	28.1102
83.76	12.2062
83.98	9.15923
84.2	12.0784
84.42	27.8794
84.64	18.953
84.86	18.3718
85.08	12.0174
85.3	13.9153
85.52	24.4239
85.74	16.1682
85.96	11.7647
86.18	4.58214
86.4	25.8375
86.62	6.14808
86.84	5.12995
87.06	5.5451
87.28	9.95842
87.5	8.4539
87.72	3.26957
87.94	10.4407
88.16	2.90458
88.38	11.8364
88.6	22.0483
88.82	27.1364
89.04	9.29382
89.26	2.77435
89.48	19.9072
89.7	4.24107
89.92	0.765377
