Measurement: Powder, Xray Data XY Processed
Mineral: Grunerite
Rruff sample: R040150
Ideal chemistry: [box]Fe^2+^_2_Fe^2+^_5_Si_8_O_22_(OH)_2_
Locality: Smallwood mine, Heath Lake, Newfoundland, Canada
Source: University of Arizona Mineral Museum
Description: Brown bladed crystals in parallel aggregate
Diffraction sample description: Powder
Measured chemistry: (Fe_0.69_Mg_0.27_Ca_0.02_Mn_0.02_)_7_Si_8.02_O_22_((OH)_0.98_Cl_0.02_)_2_
Cell parameters: a: 9.5556(4) b: 18.293(2) c: 5.3293(5) alpha: 90. beta: 102.024(6) gamma: 90. volume: 911.18(8) crystal system: monoclinic
x	intensity
5	0
5.22	1.40519
5.44	35.5929
5.66	21.9865
5.88	25.3669
6.1	14.0177
6.32	16.0903
6.54	10.7012
6.76	6.3397
6.98	21.7937
7.2	24.5425
7.42	19.0875
7.64	16.3193
7.86	17.2867
8.08	15.9013
8.3	0.809761
8.52	31.9509
8.74	37.1565
8.96	27.3174
9.18	15.8887
9.4	17.4779
9.62	37.0728
9.84	19.2885
10.06	27.5405
10.28	24.4197
10.5	83.1811
10.72	170.743
10.94	19.9934
11.16	14.8187
11.38	8.62154
11.6	15.6393
11.82	47.769
12.04	2.55585
12.26	3.27825
12.48	25.0887
12.7	2.09374
12.92	0.510284
13.14	9.93433
13.36	21.5529
13.58	10.5801
13.8	34.8037
14.02	37.0004
14.24	13.7913
14.46	33.5102
14.68	23.4067
14.9	27.1797
15.12	20.2538
15.34	33.8137
15.56	39.7128
15.78	28.6573
16	6.99089
16.22	26.5362
16.44	14.3644
16.66	1.10261
16.88	27.0053
17.1	30.6549
17.32	49.014
17.54	8.56364
17.76	37.4236
17.98	10.9224
18.2	28.8489
18.42	21.6855
18.64	5.71924
18.86	20.1914
19.08	30.201
19.3	23.5282
19.52	25.2395
19.74	3.40966
19.96	27.7541
20.18	19.3795
20.4	19.8712
20.62	4.69685
20.84	23.0887
21.06	12.4135
21.28	35.5571
21.5	13.484
21.72	0.587929
21.94	20.6754
22.16	14.1353
22.38	20.277
22.6	15.5126
22.82	40.1964
23.04	42.9018
23.26	7.16529
23.48	11.5294
23.7	26.3632
23.92	7.20603
24.14	18.7776
24.36	7.5451
24.58	5.82575
24.8	19.0432
25.02	37.1727
25.24	17.3599
25.46	4.24922
25.68	27.8309
25.9	34.3972
26.12	14.0985
26.34	31.7825
26.56	6.33907
26.78	0.485519
27	0.027542
27.22	26.323
27.44	13.1226
27.66	18.8297
27.88	21.955
28.1	24.2973
28.32	6.65627
28.54	7.28507
28.76	12.0269
28.98	44.5098
29.2	96.1181
29.42	2.6308
29.64	28.0758
29.86	50.4241
30.08	21.5759
30.3	16.4049
30.52	6.73839
30.74	30.2343
30.96	18.75
31.18	19.7963
31.4	18.6653
31.62	17.8279
31.84	0.346283
32.06	0.409164
32.28	78.2923
32.5	150.44
32.72	36.0903
32.94	33.8612
33.16	19.4563
33.38	30.8079
33.6	3.67561
33.82	37.0704
34.04	64.8233
34.26	61.6138
34.48	22.3041
34.7	15.7566
34.92	4.34753
35.14	8.89247
35.36	47.4539
35.58	20.793
35.8	98.308
36.02	22.3863
36.24	28.3139
36.46	35.1681
36.68	36.7868
36.9	29.3188
37.12	2.29302
37.34	22.9656
37.56	19.0512
37.78	16.1434
38	5.89117
38.22	22.7391
38.44	29.6235
38.66	22.3115
38.88	37.9026
39.1	33.2926
39.32	57.2229
39.54	23.1667
39.76	32.8893
39.98	14.2995
40.2	20.1049
40.42	32.0063
40.64	29.8806
40.86	12.7586
41.08	88.2839
41.3	33.0586
41.52	21.9792
41.74	36.0882
41.96	1.71603
42.18	20.4715
42.4	37.5733
42.62	13.3793
42.84	24.1014
43.06	11.9915
43.28	14.8907
43.5	32.9108
43.72	24.6348
43.94	11.0786
44.16	11.6479
44.38	88.6897
44.6	23.9207
44.82	16.8495
45.04	20.681
45.26	5.13415
45.48	14.9784
45.7	38.1843
45.92	34.0404
46.14	22.9597
46.36	37.6455
46.58	9.74548
46.8	13.5733
47.02	6.70425
47.24	14.833
47.46	47.9269
47.68	22.1133
47.9	6.17722
48.12	8.74066
48.34	10.6858
48.56	3.57752
48.78	22.4369
49	12.6911
49.22	16.1745
49.44	13.4017
49.66	15.2954
49.88	35.6709
50.1	10.6176
50.32	12.6758
50.54	44.9077
50.76	21.656
50.98	23.133
51.2	31.9288
51.42	9.53891
51.64	9.34772
51.86	20.2381
52.08	2.44756
52.3	7.84555
52.52	11.0535
52.74	28.7198
52.96	41.3947
53.18	17.7318
53.4	7.47615
53.62	20.5916
53.84	9.98036
54.06	8.06464
54.28	9.67784
54.5	11.5215
54.72	36.8868
54.94	13.2061
55.16	7.6322
55.38	47.3993
55.6	16.0481
55.82	13.7277
56.04	25.2421
56.26	39.5357
56.48	9.61997
56.7	33.7091
56.92	20.3417
57.14	17.8658
57.36	25.3559
57.58	14.6381
57.8	27.9815
58.02	42.668
58.24	43.6941
58.46	1.26326
58.68	13.1158
58.9	1.33182
59.12	24.7859
59.34	41.1418
59.56	21.6772
59.78	13.6722
60	24.1559
60.22	23.0498
60.44	10.8156
60.66	30.7288
60.88	48.725
61.1	8.17154
61.32	23.0167
61.54	34.7316
61.76	28.2323
61.98	3.41132
62.2	7.90782
62.42	4.44337
62.64	7.69177
62.86	24.7056
63.08	13.3398
63.3	18.5919
63.52	10.0744
63.74	8.58725
63.96	28.2503
64.18	28.5255
64.4	35.9765
64.62	30.8227
64.84	31.3592
65.06	16.555
65.28	24.1394
65.5	11.395
65.72	2.11177
65.94	11.4709
66.16	8.66684
66.38	71.763
66.6	66.2919
66.82	7.74953
67.04	5.56349
67.26	23.9579
67.48	22.32
67.7	31.7241
67.92	27.1771
68.14	24.6509
68.36	2.77214
68.58	22.7422
68.8	39.3529
69.02	31.7589
69.24	11.7255
69.46	27.7081
69.68	29.4889
69.9	14.8355
70.12	18.3576
70.34	20.558
70.56	24.87
70.78	9.79669
71	18.8151
71.22	41.4475
71.44	5.95926
71.66	22.2236
71.88	16.7488
72.1	11.2598
72.32	17.7922
72.54	61.5086
72.76	18.7083
72.98	4.27922
73.2	5.53595
73.42	11.0356
73.64	23.2645
73.86	21.0284
74.08	42.1978
74.3	19.9156
74.52	25.593
74.74	23.3457
74.96	23.5929
75.18	0.26767
75.4	17.1821
75.62	17.6638
75.84	31.9059
76.06	0.183762
76.28	3.69432
76.5	10.629
76.72	17.4947
76.94	24.0826
77.16	14.2202
77.38	13.8191
77.6	25.8637
77.82	26.3572
78.04	21.0122
78.26	42.2543
78.48	19.0568
78.7	27.0112
78.92	18.6519
79.14	20.8253
79.36	29.1071
79.58	15.5717
79.8	20.6915
80.02	38.5341
80.24	0.851234
80.46	15.9082
80.68	37.4981
80.9	21.6136
81.12	27.1383
81.34	12.3005
81.56	18.097
81.78	0.306549
82	31.1281
82.22	58.5223
82.44	17.5154
82.66	16.5096
82.88	15.7936
83.1	13.3052
83.32	28.4439
83.54	29.3901
83.76	7.58028
83.98	11.7501
84.2	16.8617
84.42	3.29806
84.64	23.7427
84.86	18.3458
85.08	44.4109
85.3	20.5092
85.52	3.4729
85.74	5.10943
85.96	16.959
86.18	18.3909
86.4	7.25162
86.62	8.0464
86.84	5.73216
87.06	16.1758
87.28	29.7709
87.5	12.2053
87.72	5.55063
87.94	15.2837
88.16	10.611
88.38	15.2103
88.6	15.7723
88.82	0.00322
89.04	26.5694
89.26	25.0974
89.48	24.4489
89.7	22.2091
89.92	7.80811
