Measurement: Powder, Xray Data XY Processed
Mineral: Grunerite
Rruff sample: R060062
Ideal chemistry: [box]Fe^2+^_2_Fe^2+^_5_Si_8_O_22_(OH)_2_
Locality: 2C mine, Broken Hill, New South Wales, Australia
Source: University of Arizona Mineral Museum
Description: Aggregate of greenish-brown colored parallel acicular crystals
Diffraction sample description: Powder
Measured chemistry: [box](Fe^2+^_4.32_Mg_1.90_Mn_0.54_Ca_0.22_)_Σ=7_(Si_7.98_Al_0.02_)_Σ=8_O_22_(OH)_2_
Cell parameters: a: 9.5681(4) b: 18.270(3) c: 5.324(3) alpha: 90 beta: 102.107(8) gamma: 90 volume: 910.0(3) crystal system: monoclinic
x	intensity
5	0
5.22	5.519
5.44	5.909
5.66	12.628
5.88	9.971
6.1	15.781
6.32	10.408
6.54	17.193
6.76	19.735
6.98	28.208
7.2	19.813
7.42	30.155
7.64	14.07
7.86	16.602
8.08	14.202
8.3	8.833
8.52	7.537
8.74	15.651
8.96	21.279
9.18	4.632
9.4	1.91
9.62	30.144
9.84	11.692
10.06	28.533
10.28	18.71
10.5	31.519
10.72	37.685
10.94	22.213
11.16	16.295
11.38	28.519
11.6	21.187
11.82	16.821
12.04	8.049
12.26	23.282
12.48	17.519
12.7	0.509
12.92	7.142
13.14	17.565
13.36	23.987
13.58	22.783
13.8	23.36
14.02	9.785
14.24	12.371
14.46	2.275
14.68	17.547
14.9	9.09
15.12	7.738
15.34	14.52
15.56	5.751
15.78	26.451
16	1.357
16.22	24.354
16.44	25.879
16.66	4.201
16.88	4.279
17.1	5.599
17.32	25.065
17.54	15.77
17.76	7.49
17.98	9.744
18.2	13.031
18.42	8.031
18.64	16.478
18.86	12.809
19.08	12.67
19.3	14.5
19.52	21.553
19.74	20.278
19.96	2.522
20.18	0.34
20.4	0.551
20.62	11.657
20.84	12.062
21.06	16.588
21.28	11.476
21.5	24.709
21.72	14.689
21.94	4.174
22.16	13.481
22.38	0.933
22.6	10.433
22.82	19.62
23.04	7.328
23.26	8.6
23.48	21.266
23.7	10.86
23.92	6.649
24.14	8.212
24.36	8.48
24.58	30.383
24.8	9.47
25.02	16.865
25.24	6.182
25.46	5.122
25.68	21.066
25.9	93.487
26.12	93.841
26.34	14.782
26.56	18.222
26.78	17.386
27	13.764
27.22	31.067
27.44	14.765
27.66	20.233
27.88	19.407
28.1	13.414
28.32	18.034
28.54	13.838
28.76	16.244
28.98	71.925
29.2	26.965
29.42	17.216
29.64	3.641
29.86	54.714
30.08	169.053
30.3	79.603
30.52	9.988
30.74	31.749
30.96	7.681
31.18	10.406
31.4	32.103
31.62	18.636
31.84	38.52
32.06	30.56
32.28	44.056
32.5	81.203
32.72	20.072
32.94	18.247
33.16	1.892
33.38	3.791
33.6	21.95
33.82	13.823
34.04	20.279
34.26	0.049
34.48	16.434
34.7	12.048
34.92	14.717
35.14	11.134
35.36	2.938
35.58	0.866
35.8	26.833
36.02	15.721
36.24	9.666
36.46	9.885
36.68	14.616
36.9	0.261
37.12	12.725
37.34	20.464
37.56	17.909
37.78	6.948
38	24.531
38.22	27.445
38.44	22.395
38.66	14.52
38.88	11.37
39.1	26.509
39.32	17.471
39.54	23.681
39.76	13.256
39.98	9.743
40.2	11.437
40.42	30.891
40.64	17.668
40.86	2.992
41.08	29.899
41.3	31.39
41.52	0.395
41.74	29.491
41.96	20.442
42.18	9.175
42.4	24.515
42.62	33.051
42.84	28.32
43.06	85.481
43.28	66.151
43.5	20.186
43.72	34.567
43.94	7.463
44.16	23.394
44.38	34.129
44.6	1.793
44.82	32.477
45.04	5.838
45.26	27.339
45.48	7.092
45.7	8.726
45.92	10.344
46.14	23.089
46.36	19.452
46.58	20.193
46.8	7.806
47.02	13.185
47.24	2.948
47.46	8.972
47.68	17.923
47.9	10.433
48.12	15.868
48.34	0.269
48.56	1.439
48.78	19.143
49	14.099
49.22	23.619
49.44	3.345
49.66	10.565
49.88	1.154
50.1	3.168
50.32	18.538
50.54	2.037
50.76	33.809
50.98	45.037
51.2	39.441
51.42	16.92
51.64	12.204
51.86	7.565
52.08	10.004
52.3	3.442
52.52	18.819
52.74	11.736
52.96	7.998
53.18	30.522
53.4	22.635
53.62	29.224
53.84	18.688
54.06	9.497
54.28	15.372
54.5	14.154
54.72	7.385
54.94	16.826
55.16	16.39
55.38	44.556
55.6	2.035
55.82	13.272
56.04	2.169
56.26	23.681
56.48	10.303
56.7	24.715
56.92	1.755
57.14	17.096
57.36	18.171
57.58	11.36
57.8	14.191
58.02	9.993
58.24	8.688
58.46	23.812
58.68	20.783
58.9	9.344
59.12	7.191
59.34	19.881
59.56	43.094
59.78	20.092
60	7.995
60.22	5.207
60.44	19.409
60.66	28.777
60.88	43
61.1	0.109
61.32	3.863
61.54	29.664
61.76	9.763
61.98	20.712
62.2	10.721
62.42	4.615
62.64	32.837
62.86	20.12
63.08	9.043
63.3	6.47
63.52	0.019
63.74	3.899
63.96	11.206
64.18	12.44
64.4	1.386
64.62	5.524
64.84	18.602
65.06	16.657
65.28	1.079
65.5	19.145
65.72	7.712
65.94	9.697
66.16	13.102
66.38	78.824
66.6	50.6
66.82	2.322
67.04	22.867
67.26	13.949
67.48	6.69
67.7	8.584
67.92	36.621
68.14	13.724
68.36	3.457
68.58	16.846
68.8	23.274
69.02	14.697
69.24	34.232
69.46	12.637
69.68	0.278
69.9	20.95
70.12	28.8
70.34	17.568
70.56	38.826
70.78	31.627
71	24.566
71.22	35.812
71.44	7.143
71.66	12.8
71.88	3.68
72.1	19.094
72.32	11.944
72.54	28.952
72.76	18.124
72.98	23.536
73.2	15.285
73.42	11.246
73.64	19.828
73.86	13.417
74.08	10.933
74.3	27.733
74.52	6.887
74.74	23.938
74.96	20.55
75.18	15.249
75.4	36.434
75.62	12.478
75.84	15.724
76.06	26.421
76.28	13.974
76.5	13.558
76.72	26.194
76.94	11.337
77.16	16.604
77.38	12.985
77.6	11.989
77.82	1.872
78.04	24.691
78.26	7.171
78.48	21.064
78.7	15.744
78.92	19.381
79.14	24.592
79.36	26.308
79.58	14.515
79.8	13.674
80.02	8.275
80.24	1.534
80.46	28.589
80.68	16.743
80.9	27.244
81.12	14.404
81.34	15.88
81.56	3.816
81.78	10.969
82	10.771
82.22	7.176
82.44	20.447
82.66	13.097
82.88	29.11
83.1	3.309
83.32	16.941
83.54	13.363
83.76	33.813
83.98	3.432
84.2	21.55
84.42	25.117
84.64	28.325
84.86	4.777
85.08	13.087
85.3	27.789
85.52	29.713
85.74	26.59
85.96	14.659
86.18	21.672
86.4	4.559
86.62	7.386
86.84	7.878
87.06	26.089
87.28	5.431
87.5	1.048
87.72	28.524
87.94	15.336
88.16	31.712
88.38	8.462
88.6	3.221
88.82	16.788
89.04	20.166
89.26	29.949
89.48	7.721
89.7	24.433
89.92	7.085
