Measurement: Powder, Xray Data XY Processed
Mineral: Gunningite
Rruff sample: R070571
Ideal chemistry: Zn^2+^S^6+^O_4_H_2_O
Locality: Rammelsberg, Goslar, Harz Mountains, Lower Saxony, Germany
Source: James Shigley
Description: Fine white powder, with minor component of boyleite
Diffraction sample description: Powder, with minor component of boyleite
Cell parameters: a: 6.9629(3) b: 7.5979(3) c: 7.6822(5) alpha: 90 beta: 118.258(5) gamma: 90 volume: 357.98(2) crystal system: monoclinic
x	intensity
5	0
5.22	0.258705
5.44	9.2814
5.66	14.1746
5.88	9.14518
6.1	15.3743
6.32	16.5754
6.54	11.9227
6.76	14.9481
6.98	9.3382
7.2	4.82681
7.42	2.76855
7.64	18.4059
7.86	5.46192
8.08	5.77638
8.3	6.24617
8.52	3.43815
8.74	16.4921
8.96	11.348
9.18	15.6999
9.4	10.4135
9.62	15.4843
9.84	14.6846
10.06	4.2762
10.28	14.0141
10.5	17.6161
10.72	3.52861
10.94	6.44793
11.16	3.9513
11.38	15.6221
11.6	12.2537
11.82	18.9754
12.04	8.72356
12.26	7.84851
12.48	16.6202
12.7	4.67119
12.92	30.7687
13.14	16.5997
13.36	21.8831
13.58	1.55451
13.8	10.5882
14.02	15.5437
14.24	18.8269
14.46	10.8053
14.68	15.3819
14.9	18.0095
15.12	15.6097
15.34	17.1114
15.56	22.8007
15.78	12.1406
16	13.3471
16.22	37.2195
16.44	12.8593
16.66	0.366104
16.88	12.864
17.1	2.27219
17.32	6.05462
17.54	11.8642
17.76	1.42033
17.98	20.7171
18.2	36.7788
18.42	328.732
18.64	255.506
18.86	34.6001
19.08	8.73074
19.3	0.447746
19.52	16.1642
19.74	27.7603
19.96	30.1795
20.18	60.306
20.4	14.3389
20.62	0.249828
20.84	19.4967
21.06	22.1512
21.28	26.2183
21.5	1.62635
21.72	7.98666
21.94	20.7917
22.16	13.4792
22.38	46.003
22.6	7.89722
22.82	19.2919
23.04	5.57777
23.26	20.3123
23.48	49.9322
23.7	3.16431
23.92	9.02926
24.14	8.24928
24.36	11.1409
24.58	4.11636
24.8	7.01815
25.02	15.9037
25.24	17.9067
25.46	7.31365
25.68	18.7329
25.9	128.127
26.12	547.57
26.34	43.6658
26.56	171.52
26.78	44.8203
27	126.295
27.22	17.0598
27.44	2.10501
27.66	30.9086
27.88	4.94287
28.1	14.7976
28.32	22.3625
28.54	10.4035
28.76	20.9754
28.98	109.945
29.2	203.185
29.42	22.4556
29.64	5.71653
29.86	12.4233
30.08	16.8521
30.3	40.6999
30.52	12.3829
30.74	16.4164
30.96	12.8217
31.18	22.4048
31.4	12.1449
31.62	6.78717
31.84	17.0241
32.06	22.0686
32.28	29.5036
32.5	14.9276
32.72	3.57287
32.94	14.57
33.16	8.69777
33.38	27.5774
33.6	4.31591
33.82	4.81072
34.04	13.3275
34.26	0.745838
34.48	15.7227
34.7	6.39945
34.92	87.8719
35.14	46.3434
35.36	66.1285
35.58	178.752
35.8	31.3369
36.02	26.2861
36.24	14.2594
36.46	20.3288
36.68	9.16106
36.9	4.05216
37.12	22.9065
37.34	14.1986
37.56	0.87001
37.78	28.2529
38	20.2352
38.22	21.0782
38.44	84.7496
38.66	7.07721
38.88	9.6008
39.1	11.1708
39.32	9.96398
39.54	11.6763
39.76	17.9773
39.98	0.862015
40.2	2.72998
40.42	0.299595
40.64	14.559
40.86	39.8698
41.08	77.6974
41.3	22.7116
41.52	14.4501
41.74	19.7402
41.96	2.59628
42.18	7.39612
42.4	23.468
42.62	13.733
42.84	44.2766
43.06	36.4692
43.28	11.013
43.5	15.1958
43.72	12.5075
43.94	47.3153
44.16	12.584
44.38	10.0749
44.6	12.5771
44.82	15.4005
45.04	7.82459
45.26	7.11896
45.48	0.533241
45.7	15.9141
45.92	49.6568
46.14	35.7456
46.36	5.15785
46.58	0.877987
46.8	6.95824
47.02	8.55135
47.24	0.61079
47.46	13.7912
47.68	9.29035
47.9	29.3613
48.12	14.6431
48.34	23.4421
48.56	27.9078
48.78	26.4178
49	2.88556
49.22	0.427959
49.44	18.3213
49.66	28.8479
49.88	9.00746
50.1	26.0211
50.32	1.44233
50.54	8.60901
50.76	9.52211
50.98	20.9559
51.2	1.9411
51.42	17.9482
51.64	5.34239
51.86	9.06661
52.08	2.78854
52.3	13.6166
52.52	7.66502
52.74	21.7894
52.96	9.42456
53.18	11.2102
53.4	29.9441
53.62	14.9027
53.84	13.5147
54.06	5.68029
54.28	21.2149
54.5	29.5968
54.72	33.8364
54.94	5.02908
55.16	15.3934
55.38	29.9948
55.6	35.552
55.82	0.40395
56.04	1.53572
56.26	3.75494
56.48	21.2595
56.7	44.3627
56.92	29.3681
57.14	16.0921
57.36	5.18438
57.58	11.7464
57.8	10.383
58.02	34.418
58.24	17.0502
58.46	17.7021
58.68	10.8664
58.9	3.03344
59.12	22.2547
59.34	19.6723
59.56	12.2015
59.78	5.71612
60	12.838
60.22	10.5335
60.44	25.8662
60.66	18.109
60.88	5.21368
61.1	10.7801
61.32	17.2253
61.54	38.5349
61.76	12.5046
61.98	15.5607
62.2	4.85386
62.42	2.00851
62.64	10.8267
62.86	26.665
63.08	11.826
63.3	5.10868
63.52	19.2931
63.74	16.3351
63.96	27.4778
64.18	33.2587
64.4	13.681
64.62	8.37744
64.84	15.9464
65.06	12.4031
65.28	12.1115
65.5	20.2958
65.72	16.9809
65.94	7.4829
66.16	17.2085
66.38	19.9286
66.6	11.2208
66.82	4.34543
67.04	9.84103
67.26	6.16438
67.48	6.56217
67.7	13.7514
67.92	20.0117
68.14	11.0844
68.36	15.8656
68.58	11.1757
68.8	20.859
69.02	1.22692
69.24	21.1493
69.46	8.00583
69.68	0.738579
69.9	11.3406
70.12	12.0123
70.34	22.7222
70.56	22.3362
70.78	13.6584
71	11.7726
71.22	0.514481
71.44	3.03427
71.66	2.60582
71.88	10.5235
72.1	10.3571
72.32	10.7678
72.54	11.4665
72.76	16.3348
72.98	2.85399
73.2	8.77791
73.42	13.5614
73.64	26.2698
73.86	12.0083
74.08	26.5111
74.3	6.2273
74.52	6.57634
74.74	6.06548
74.96	18.2782
75.18	20.0828
75.4	11.4817
75.62	11.7175
75.84	20.4211
76.06	2.85439
76.28	12.2973
76.5	8.4929
76.72	4.85624
76.94	18.2877
77.16	2.83093
77.38	9.08423
77.6	8.10012
77.82	18.9566
78.04	14.1984
78.26	4.34782
78.48	24.5172
78.7	23.6613
78.92	19.9683
79.14	9.03252
79.36	16.4294
79.58	10.4545
79.8	22.3263
80.02	25.443
80.24	0.201134
80.46	12.5256
80.68	4.449
80.9	5.4192
81.12	4.40611
81.34	18.3828
81.56	5.05891
81.78	10.9043
82	13.6544
82.22	19.7904
82.44	14.7934
82.66	18.4162
82.88	15.0623
83.1	15.2742
83.32	11.5325
83.54	14.5127
83.76	14.6524
83.98	11.3851
84.2	12.16
84.42	13.7192
84.64	12.453
84.86	19.0046
85.08	0.561394
85.3	2.62557
85.52	11.6488
85.74	11.3598
85.96	8.60523
86.18	14.7784
86.4	15.8997
86.62	10.9476
86.84	4.1708
87.06	8.57664
87.28	21.2744
87.5	8.36499
87.72	1.24685
87.94	1.4693
88.16	10.8483
88.38	8.81606
88.6	7.89885
88.82	5.23052
89.04	18.338
89.26	0.777042
89.48	10.8578
89.7	17.6613
89.92	16.6496
