Measurement: Powder, Xray Data XY Processed
Mineral: Guyanaite
Rruff sample: R070444
Ideal chemistry: Cr^3+^O(OH)
Locality: Merume river, Kamakusa, Mazaruni District, Guyana
Source: Michael Scott
Description: Black alluvial grains, a mixture of guyanaite, bracewellite, eskolaite and quartz, colloquially known as merumite
Diffraction sample description: Powder, mixture includes bracewellite, eskolaite and quartz
Cell parameters: a: 4.8773 b: 4.3111 c: 2.9547 alpha: 90 beta: 90 gamma: 90 volume: 62.127 crystal system: orthorhombic
x	intensity
4.92	0
5.14	4.70207
5.36	2.21084
5.58	9.81262
5.8	8.21434
6.02	5.35463
6.24	3.23753
6.46	9.15206
6.68	2.00174
6.9	0.998241
7.12	6.70345
7.34	4.49529
7.56	12.4075
7.78	13.585
8	4.82209
8.22	6.84906
8.44	4.06481
8.66	7.90762
8.88	8.04665
9.1	3.38766
9.32	2.96626
9.54	2.69374
9.76	11.6182
9.98	8.1479
10.2	2.42706
10.42	5.69627
10.64	4.48614
10.86	13.6429
11.08	7.2876
11.3	6.64616
11.52	12.2777
11.74	6.92586
11.96	8.10757
12.18	6.1966
12.4	5.20583
12.62	6.56363
12.84	2.07371
13.06	4.77607
13.28	7.59886
13.5	2.92357
13.72	5.83182
13.94	3.23789
14.16	7.69696
14.38	4.09628
14.6	5.0332
14.82	8.49974
15.04	5.93783
15.26	8.407
15.48	8.72436
15.7	3.84317
15.92	6.17191
16.14	0.051683
16.36	12.0319
16.58	4.30874
16.8	10.7768
17.02	3.74027
17.24	5.10861
17.46	4.61827
17.68	5.78263
17.9	9.22578
18.12	3.05245
18.34	8.27255
18.56	5.94919
18.78	4.1622
19	0.755085
19.22	4.64382
19.44	6.58534
19.66	0.80932
19.88	5.67131
20.1	1.47464
20.32	2.77124
20.54	3.66849
20.76	1.81659
20.98	1.7369
21.2	6.10551
21.42	6.04937
21.64	17.3602
21.86	2.97619
22.08	6.82712
22.3	3.55796
22.52	0.19029
22.74	2.78266
22.96	2.98882
23.18	0.24453
23.4	4.42072
23.62	2.12426
23.84	7.36696
24.06	6.66817
24.28	4.06663
24.5	16.1444
24.72	13.1007
24.94	1.7562
25.16	9.17131
25.38	12.9884
25.6	3.25983
25.82	5.0279
26.04	2.46526
26.26	2.34099
26.48	8.24755
26.7	22.8458
26.92	7.4465
27.14	3.65996
27.36	9.65251
27.58	20.4183
27.8	27.735
28.02	6.94379
28.24	7.85138
28.46	4.33849
28.68	9.3915
28.9	5.61048
29.12	5.08154
29.34	7.78738
29.56	5.92074
29.78	3.6368
30	0.965902
30.22	0.016195
30.44	1.3687
30.66	5.57474
30.88	6.0633
31.1	10.5262
31.32	1.75556
31.54	3.71031
31.76	0.095665
31.98	6.57
32.2	1.75337
32.42	1.27058
32.64	4.37083
32.86	9.53841
33.08	5.61651
33.3	4.25137
33.52	11.0224
33.74	35.621
33.96	12.3986
34.18	2.26625
34.4	2.66408
34.62	4.83618
34.84	8.83294
35.06	5.54126
35.28	7.1913
35.5	14.714
35.72	6.57282
35.94	0.143984
36.16	9.77278
36.38	36.3823
36.6	8.00136
36.82	20.1237
37.04	28.2127
37.26	7.91304
37.48	4.21117
37.7	7.67167
37.92	11.9751
38.14	0.95565
38.36	3.77014
38.58	5.75406
38.8	2.32449
39.02	0.334839
39.24	2.18992
39.46	8.58166
39.68	8.15616
39.9	4.48038
40.12	4.31319
40.34	6.0801
40.56	15.7218
40.78	7.31686
41	1.49939
41.22	6.73568
41.44	14.4813
41.66	14.771
41.88	10.0314
42.1	3.37398
42.32	0.94949
42.54	7.98869
42.76	6.15453
42.98	9.5956
43.2	2.8852
43.42	5.91783
43.64	0.555674
43.86	0.6796
44.08	1.9513
44.3	0.245434
44.52	10.8476
44.74	6.00869
44.96	3.02527
45.18	2.56363
45.4	1.00182
45.62	5.54252
45.84	12.0806
46.06	1.43179
46.28	4.64006
46.5	8.15265
46.72	7.48929
46.94	0.856285
47.16	0.123596
47.38	7.77752
47.6	4.47852
47.82	9.51476
48.04	3.75789
48.26	2.62392
48.48	6.67063
48.7	7.47843
48.92	8.48883
49.14	3.43436
49.36	8.15188
49.58	4.52918
49.8	6.4843
50.02	8.37376
50.24	14.4673
50.46	19.395
50.68	10.2359
50.9	2.60627
51.12	8.82956
51.34	5.36975
51.56	9.12791
51.78	0.902428
52	4.5802
52.22	11.5219
52.44	5.70311
52.66	4.82262
52.88	11.383
53.1	15.6918
53.32	10.3706
53.54	7.77254
53.76	2.79745
53.98	7.86881
54.2	8.85777
54.42	9.22109
54.64	9.18363
54.86	10.2107
55.08	20.414
55.3	6.62291
55.52	1.17106
55.74	7.09967
55.96	6.46512
56.18	7.72421
56.4	7.03066
56.62	7.58312
56.84	7.59556
57.06	2.32447
57.28	11.2807
57.5	9.09353
57.72	4.37115
57.94	6.54824
58.16	4.28785
58.38	3.21394
58.6	9.91445
58.82	2.95588
59.04	8.5031
59.26	7.09787
59.48	7.79501
59.7	7.70591
59.92	13.0004
60.14	1.07729
60.36	2.31238
60.58	0.891529
60.8	3.7782
61.02	9.51446
61.24	14.725
61.46	3.51334
61.68	0.41744
61.9	4.47542
62.12	0.234449
62.34	4.10579
62.56	4.43852
62.78	15.389
63	2.35716
63.22	12.1381
63.44	8.02291
63.66	8.94795
63.88	11.2516
64.1	8.32603
64.32	5.64061
64.54	5.58207
64.76	5.31152
64.98	5.46789
65.2	9.27081
65.42	19.2036
65.64	7.55319
65.86	7.39916
66.08	1.97248
66.3	11.2095
66.52	4.66494
66.74	4.64616
66.96	12.0631
67.18	4.6082
67.4	5.71457
67.62	0.85931
67.84	6.04044
68.06	21.5175
68.28	29.2867
68.5	5.37226
68.72	4.3373
68.94	0.648827
69.16	6.12227
69.38	10.4086
69.6	4.49953
69.82	5.86118
70.04	7.85374
70.26	4.01756
70.48	4.05115
70.7	4.98702
70.92	6.60337
71.14	2.63661
71.36	4.70643
71.58	4.60103
71.8	8.14932
72.02	3.45456
72.24	6.47697
72.46	1.76283
72.68	5.24405
72.9	2.07985
73.12	9.89967
73.34	12.4194
73.56	5.07908
73.78	2.75243
74	1.60882
74.22	3.51336
74.44	5.82348
74.66	2.80928
74.88	0.253983
75.1	3.4362
75.32	5.86531
75.54	3.32351
75.76	9.41611
75.98	3.16574
76.2	6.35672
76.42	9.87739
76.64	4.89971
76.86	1.85076
77.08	5.22817
77.3	6.39234
77.52	5.98039
77.74	3.91334
77.96	8.56869
78.18	4.56307
78.4	5.83437
78.62	5.41451
78.84	12.5099
79.06	10.3066
79.28	1.19785
79.5	5.84585
79.72	10.7884
79.94	0.885464
80.16	5.49414
80.38	5.345
80.6	0.272345
80.82	8.88146
81.04	7.83809
81.26	13.5545
81.48	6.73305
81.7	3.5825
81.92	3.58159
82.14	5.70216
82.36	6.44983
82.58	1.1971
82.8	1.90728
83.02	1.39584
83.24	8.08974
83.46	8.85126
83.68	11.3527
83.9	1.83396
84.12	3.8861
84.34	5.77794
84.56	6.15035
84.78	14.1168
85	11.4785
85.22	9.67178
85.44	3.3354
85.66	0.765673
85.88	3.02578
86.1	9.09411
86.32	4.50331
86.54	0.913097
86.76	11.4748
86.98	8.12529
87.2	0.867805
87.42	7.86454
87.64	1.3193
87.86	3.57705
88.08	7.80975
88.3	6.3602
88.52	2.41581
88.74	7.62687
88.96	1.03625
89.18	14.4778
89.4	0.983532
89.62	6.6856
89.84	6.67479
