Measurement: Powder, Xray Data XY Processed
Mineral: Gypsum
Rruff sample: R040029
Ideal chemistry: CaS^6+^O_4_2H_2_O
Locality: Twin Buttes, Pima County, Arizona, USA
Source: University of Arizona Mineral Museum
Description: Colorless prismatic crystal
Diffraction sample description: Powder
Cell parameters: a: 5.6759(4) b: 15.210(1) c: 6.5265(6) alpha: 90 beta: 118.463(5) gamma: 90 volume: 495.33(5) crystal system: monoclinic
x	intensity
5	0
5.22	7.327
5.44	13.887
5.66	22.821
5.88	7.443
6.1	5.181
6.32	12.16
6.54	23.503
6.76	16.342
6.98	6.795
7.2	15.655
7.42	7.312
7.64	7.315
7.86	9.043
8.08	7.771
8.3	9.94
8.52	5.673
8.74	5.307
8.96	3.326
9.18	4.155
9.4	4.185
9.62	3.146
9.84	7.078
10.06	5.885
10.28	5.569
10.5	28.19
10.72	7.329
10.94	5.69
11.16	3.425
11.38	28.176
11.6	732.422
11.82	70.806
12.04	9.204
12.26	6.677
12.48	8.975
12.7	1.459
12.92	8.282
13.14	2.951
13.36	3.827
13.58	10.521
13.8	7.067
14.02	0.893
14.24	8.325
14.46	12.478
14.68	4.744
14.9	2.122
15.12	4.47
15.34	6.59
15.56	7.843
15.78	10.891
16	14.161
16.22	13.498
16.44	3.545
16.66	1.517
16.88	0.778
17.1	9.662
17.32	1.825
17.54	4.852
17.76	7.791
17.98	13.64
18.2	1.922
18.42	14.173
18.64	10.93
18.86	6.556
19.08	7.172
19.3	3.705
19.52	1.36
19.74	2.912
19.96	3.587
20.18	6.338
20.4	15.299
20.62	137.861
20.84	566.416
21.06	30.653
21.28	12.119
21.5	2.271
21.72	9.568
21.94	1.718
22.16	4.887
22.38	10.042
22.6	4.15
22.82	3.097
23.04	5.14
23.26	19.043
23.48	221.257
23.7	11.075
23.92	7.232
24.14	6.82
24.36	4.213
24.58	7.512
24.8	1.996
25.02	1.318
25.24	10.552
25.46	1.353
25.68	3.59
25.9	6.554
26.12	2.861
26.34	14.562
26.56	8.346
26.78	3.044
27	1.409
27.22	2.88
27.44	4.416
27.66	1.929
27.88	0.764
28.1	21.56
28.32	16.884
28.54	2.102
28.76	20.843
28.98	92.139
29.2	622.083
29.42	46.984
29.64	6.977
29.86	3.816
30.08	4.919
30.3	4.088
30.52	6.469
30.74	5.984
30.96	28.164
31.18	306.008
31.4	15.239
31.62	0.998
31.84	0.008
32.06	20.055
32.28	22.105
32.5	7.181
32.72	4.348
32.94	5.843
33.16	16.502
33.38	250.572
33.6	38.761
33.82	10.651
34.04	1.994
34.26	2.015
34.48	27.898
34.7	24.952
34.92	6.798
35.14	4.495
35.36	5.309
35.58	1.707
35.8	1.696
36.02	86.024
36.24	9.164
36.46	9.339
36.68	42.866
36.9	11.591
37.12	7.548
37.34	19.269
37.56	9.894
37.78	1.401
38	4.907
38.22	4.107
38.44	1.273
38.66	5.35
38.88	4.23
39.1	9.104
39.32	12.444
39.54	2.806
39.76	6.515
39.98	0.236
40.2	3.012
40.42	12.875
40.64	81.034
40.86	50.523
41.08	1.455
41.3	8.37
41.52	8.294
41.74	6.547
41.96	2.663
42.18	12.411
42.4	7.142
42.62	1.836
42.84	7.536
43.06	11.868
43.28	37.022
43.5	95.891
43.72	63.7
43.94	9.801
44.16	11.438
44.38	24.232
44.6	11.253
44.82	4.723
45.04	0.932
45.26	2.985
45.48	30.053
45.7	7.188
45.92	5.372
46.14	3.907
46.36	2.575
46.58	10.357
46.8	6.198
47.02	2.984
47.24	11.398
47.46	11.025
47.68	26.855
47.9	105.772
48.12	37.571
48.34	44.867
48.56	45.289
48.78	14.018
49	14.997
49.22	2.978
49.44	9.942
49.66	5.866
49.88	7.839
50.1	9.775
50.32	66.714
50.54	27.628
50.76	22.019
50.98	14.355
51.2	37.406
51.42	54.121
51.64	11.605
51.86	2.472
52.08	6.169
52.3	6.825
52.52	2.459
52.74	1.935
52.96	2.518
53.18	1.859
53.4	5.311
53.62	7.266
53.84	6.196
54.06	4.015
54.28	7.4
54.5	10.298
54.72	2.844
54.94	5.325
55.16	15.886
55.38	12.517
55.6	4.027
55.82	11.82
56.04	12.449
56.26	5.655
56.48	9.905
56.7	38.949
56.92	36.107
57.14	9.441
57.36	2.127
57.58	6.087
57.8	6.762
58.02	5.486
58.24	29.321
58.46	7.685
58.68	5.501
58.9	6.582
59.12	2.63
59.34	8.529
59.56	3.429
59.78	4.179
60	3.816
60.22	8.384
60.44	9.799
60.66	6.187
60.88	13.008
61.1	2.962
61.32	14.874
61.54	4.915
61.76	5.331
61.98	4.134
62.2	7.796
62.42	11.171
62.64	9.406
62.86	2.633
63.08	1.239
63.3	0.023
63.52	5.85
63.74	12.653
63.96	6.331
64.18	6.438
64.4	0.855
64.62	7.533
64.84	14.226
65.06	10.18
65.28	19.506
65.5	2.696
65.72	4.582
65.94	5.817
66.16	3.207
66.38	0.502
66.6	3.938
66.82	4.489
67.04	0.798
67.26	0.249
67.48	9.238
67.7	4.94
67.92	2.117
68.14	6.2
68.36	4.768
68.58	22.003
68.8	17.062
69.02	17.862
69.24	14.371
69.46	6.01
69.68	0.185
69.9	4.602
70.12	7.381
70.34	4.207
70.56	15.201
70.78	14.618
71	22.676
71.22	8.691
71.44	4.951
71.66	0.698
71.88	3.76
72.1	6.033
72.32	5.423
72.54	3.883
72.76	4.144
72.98	2.13
73.2	3.066
73.42	3.566
73.64	4.519
73.86	10.236
74.08	12.826
74.3	10.925
74.52	7.805
74.74	9.54
74.96	14.121
75.18	4.758
75.4	5.541
75.62	0.293
75.84	2.056
76.06	1.163
76.28	10.771
76.5	5.797
76.72	12.389
76.94	13.418
77.16	9.667
77.38	0.919
77.6	8.47
77.82	4.965
78.04	3.38
78.26	0.656
78.48	1.881
78.7	7.018
78.92	4.998
79.14	5.223
79.36	2.077
79.58	6.003
79.8	11.847
80.02	8.505
80.24	1.659
80.46	8.61
80.68	0.297
80.9	3.956
81.12	3.339
81.34	9.476
81.56	6.705
81.78	1.796
82	7.828
82.22	8.018
82.44	1.869
82.66	3.612
82.88	4.384
83.1	12.276
83.32	7.046
83.54	6.463
83.76	9.056
83.98	5.572
84.2	0.736
84.42	7.102
84.64	5.84
84.86	11.813
85.08	22.874
85.3	17.679
85.52	6.706
85.74	9.948
85.96	1.271
86.18	3.803
86.4	4.165
86.62	8.637
86.84	7.934
87.06	2.083
87.28	9.506
87.5	5.56
87.72	3.434
87.94	1.654
88.16	4.852
88.38	2.948
88.6	1.198
88.82	3.291
89.04	7.442
89.26	5.578
89.48	4.367
89.7	4.634
89.92	3.605
