Measurement: Powder, Xray Data XY Processed
Mineral: Haiweeite
Rruff sample: R060732
Ideal chemistry: Ca(U^6+^O_2_)_2_Si_5_O_12_(OH)_2_6H_2_O
Locality: Los Azules, Copiapo, Chile
Source: Bob Jenkins
Description: Spherical aggregates of yellow acicular crystals
Diffraction sample description: Powder, using Mo radiation
x	intensity
6.32	0
6.47	9.10095
6.62	39.2529
6.77	44.7839
6.92	40.8531
7.07	47.5641
7.22	108.085
7.37	130.991
7.52	116.719
7.67	89.7949
7.82	108.759
7.97	166.523
8.12	192.868
8.27	194.575
8.42	102.354
8.57	105.87
8.72	179.517
8.87	335.859
9.02	742.533
9.17	868.814
9.32	596.636
9.47	210.564
9.62	56.4701
9.77	27.1012
9.92	15.1706
10.07	0.58075
10.22	15.0682
10.37	3.71338
10.52	22.1379
10.67	48.1805
10.82	44.7644
10.97	72.5705
11.12	128.865
11.27	294.724
11.42	326.548
11.57	284.21
11.72	169.341
11.87	54.9007
12.02	119.147
12.17	317.392
12.32	398.577
12.47	454.19
12.62	498.23
12.77	554.872
12.92	398.817
13.07	205.451
13.22	200.347
13.37	443.265
13.52	672.291
13.67	575.955
13.82	323.087
13.97	231.284
14.12	221.019
14.27	206.01
14.42	209.176
14.57	193.457
14.72	158.21
14.87	40.7433
15.02	1.9093
15.17	14.329
15.32	43.1738
15.47	130.585
15.62	183.455
15.77	110.993
15.92	10.7465
16.07	11.1417
16.22	7.08838
16.37	12.3427
16.52	31.2802
16.67	4.08649
16.82	78.385
16.97	148.078
17.12	167.332
17.27	107.006
17.42	65.3628
17.57	57.1806
17.72	79.8878
17.87	95.8906
18.02	113.169
18.17	121.338
18.32	176.893
18.47	221.938
18.62	183.225
18.77	148.839
18.92	69.1863
19.07	26.7026
19.22	41.6093
19.37	74.1741
19.52	81.8884
19.67	54.2004
19.82	15.0747
19.97	10.9992
20.12	4.99463
20.27	9.9176
20.42	7.37958
20.57	72.3783
20.72	134.568
20.87	108.167
21.02	65.1207
21.17	97.0792
21.32	162.869
21.47	190.325
21.62	205.336
21.77	200.99
21.92	141.504
22.07	121.945
22.22	91.6605
22.37	109.55
22.52	147.287
22.67	173.247
22.82	151.09
22.97	126.459
23.12	69.5086
23.27	57.7675
23.42	62.2473
23.57	75.362
23.72	70.9501
23.87	51.4121
24.02	21.2203
24.17	33.4048
24.32	48.2418
24.47	54.1041
24.62	62.1202
24.77	40.339
24.92	4.01984
25.07	3.75824
25.22	6.48413
25.37	5.15949
25.52	37.7943
25.67	71.8559
25.82	86.5085
25.97	78.8873
26.12	91.3138
26.27	93.683
26.42	88.3234
26.57	58.7341
26.72	28.6987
26.87	16.342
27.02	38.943
27.17	54.8707
27.32	78.1448
27.47	84.0359
27.62	46.518
27.77	25.2205
27.92	15.3688
28.07	20.3562
28.22	1.28699
28.37	1.56451
28.52	5.79889
28.67	11.2516
28.82	16.4539
28.97	27.8222
29.12	37.8447
29.27	42.1645
29.42	37.6694
29.57	34.6258
29.72	49.7715
29.87	49.987
30.02	56.4346
30.17	52.9695
30.32	72.9126
30.47	103.533
30.62	106.24
30.77	98.0137
30.92	76.8115
31.07	96.4518
31.22	100.159
31.37	73.3041
31.52	57.4019
31.67	42.887
31.82	40.7126
31.97	34.327
32.12	26.9231
32.27	13.47
32.42	26.5565
32.57	27.0036
32.72	36.8028
32.87	32.7378
33.02	21.8508
33.17	8.75891
33.32	2.2561
33.47	1.05743
33.62	27.8633
33.77	5.21381
33.92	5.70233
34.07	4.98425
34.22	18.5534
34.37	14.1731
34.52	21.5424
34.67	33.3984
34.82	40.8975
34.97	62.4285
35.12	64.251
35.27	51.952
35.42	29.0956
35.57	35.1445
35.72	45.2676
35.87	42.8962
36.02	25.2309
36.17	21.2255
36.32	11.736
36.47	18.44
36.62	17.6041
36.77	19.2209
36.92	33.6379
37.07	29.834
37.22	15.9663
37.37	15.7976
37.52	3.75885
37.67	1.16467
37.82	2.83258
37.97	2.25226
38.12	2.02197
38.27	14.378
38.42	8.79071
38.57	11.5607
38.72	42.5688
38.87	44.9593
39.02	36.6675
39.17	37.7624
39.32	23.3604
39.47	14.2152
39.62	20.4287
39.77	16.0452
39.92	18.2499
40.07	9.8114
40.22	5.62408
40.37	15.6355
40.52	24.121
40.67	16.0698
40.82	23.0698
40.97	15.1105
41.12	5.7514
41.27	7.26105
41.42	5.82544
41.57	13.4898
41.72	12.7055
41.87	14.9216
42.02	18.3933
42.17	20.6039
42.32	24.9257
42.47	6.36072
42.62	16.4269
42.77	14.8993
42.92	24.0429
43.07	22.8657
43.22	11.6286
43.37	20.8119
43.52	23.148
43.67	6.83118
43.82	33.4539
43.97	19.795
44.12	40.2384
44.27	27.1976
44.42	17.2954
44.57	16.2444
44.72	5.35638
44.87	22.9721
45.02	4.76117
45.17	10.5722
45.32	8.3689
45.47	9.10907
45.62	14.7441
45.77	18.5812
45.92	21.3071
46.07	25.4128
46.22	21.2525
46.37	17.4952
46.52	11.8209
46.67	12.3785
46.82	1.13861
46.97	3.664
47.12	2.27667
47.27	8.1261
47.42	6.70685
47.57	2.797
47.72	2.28973
47.87	2.18213
48.02	1.04602
48.17	9.80084
48.32	9.93176
48.47	6.71344
48.62	13.7235
48.77	14.41
48.92	16.5662
49.07	10.973
49.22	21.3785
49.37	24.2571
49.52	9.78094
49.67	30.0803
49.82	19.8173
49.97	10.8238
50.12	16.6349
50.27	10.938
50.42	2.16461
50.57	6.38641
50.72	2.48346
50.87	1.38409
51.02	11.045
51.17	6.71722
51.32	21.1455
51.47	9.7337
51.62	6.50537
51.77	14.7456
51.92	20.0114
52.07	1.45599
52.22	7.23956
52.37	5.97455
52.52	7.50867
52.67	4.71271
52.82	16.1722
52.97	23.2955
53.12	27.6205
53.27	27.2035
53.42	24.73
53.57	16.3618
53.72	20.7957
53.87	16.648
54.02	11.4689
54.17	13.8545
54.32	14.7313
54.47	0.597046
54.62	15.9102
54.77	20.7128
54.92	17.6428
55.07	0.232056
55.22	20.8279
55.37	34.7134
55.52	7.32599
55.67	25.7286
55.82	14.9951
55.97	13.2026
56.12	14.1899
56.27	5.98126
56.42	2.86493
56.57	14.1519
56.72	11.4724
56.87	0.953857
57.02	11.9472
57.17	8.32648
57.32	6.02667
57.47	11.5676
57.62	10.1148
57.77	4.65094
57.92	7.92786
58.07	23.5803
58.22	13.9972
58.37	9.91711
58.52	14.2784
58.67	2.47864
58.82	6.85791
58.97	0.948608
59.12	2.40717
59.27	10.9408
59.42	9.43573
59.57	25.4355
59.72	7.12347
59.87	9.1073
60.02	22.8683
60.17	22.1349
60.32	17.8655
60.47	4.08618
60.62	11.4238
60.77	6.92542
60.92	21.1382
61.07	12.2803
61.22	19.4835
61.37	13.8796
61.52	31.775
61.67	15.4364
61.82	18.4836
61.97	12.8339
62.12	22.8744
62.27	13.9792
62.42	21.9125
62.57	28.5844
62.72	11.5847
62.87	15.6543
63.02	18.1697
63.17	23.7205
63.32	14.8381
63.47	17.8688
63.62	10.0371
63.77	24.7159
63.92	29.8848
64.07	46.2151
64.22	28.7413
64.37	13.2618
64.52	26.2862
64.67	15.7133
64.82	12.3514
64.97	21.6567
