Measurement: Powder, Xray Data XY Processed
Mineral: Halite
Rruff sample: R070534
Ideal chemistry: NaCl
Locality: Searles Lake, San Bernadino County, California, USA
Source: James Shigley
Description: Colorless cubes
Diffraction sample description: Powder
Cell parameters: a: 5.64154(6) b: 5.64154(6) c: 5.64154(6) alpha: 90 beta: 90 gamma: 90 volume: 179.553(6) crystal system: cubic
x	intensity
5	0
5.22	3.19776
5.44	6.1261
5.66	5.24258
5.88	2.18816
6.1	4.41108
6.32	15.8331
6.54	13.2205
6.76	10.2656
6.98	27.7161
7.2	15.4771
7.42	16.3641
7.64	5.13297
7.86	8.93403
8.08	6.63575
8.3	12.0882
8.52	0.490016
8.74	2.18308
8.96	7.91589
9.18	18.4341
9.4	7.56547
9.62	9.45124
9.84	5.75903
10.06	6.89697
10.28	5.92739
10.5	5.0575
10.72	6.40218
10.94	2.29572
11.16	3.08379
11.38	7.85142
11.6	13.2322
11.82	8.54637
12.04	12.7698
12.26	10.6876
12.48	7.73277
12.7	6.98174
12.92	8.99994
13.14	6.0426
13.36	7.04445
13.58	3.36241
13.8	2.90192
14.02	5.83255
14.24	7.77055
14.46	6.77473
14.68	3.83257
14.9	3.76368
15.12	0.386116
15.34	4.5839
15.56	5.87118
15.78	3.81198
16	10.6991
16.22	6.75687
16.44	5.75591
16.66	0.84206
16.88	6.76434
17.1	12.6014
17.32	7.64412
17.54	7.54086
17.76	2.51444
17.98	11.1281
18.2	0.815584
18.42	0.754048
18.64	9.50418
18.86	8.31578
19.08	1.79723
19.3	6.98097
19.52	0.922928
19.74	4.82274
19.96	1.85427
20.18	5.03769
20.4	7.16005
20.62	3.1476
20.84	2.25876
21.06	0.487705
21.28	5.65907
21.5	8.93559
21.72	6.04251
21.94	3.19846
22.16	11.2905
22.38	6.4448
22.6	5.41878
22.82	3.2998
23.04	6.43911
23.26	4.50602
23.48	1.49076
23.7	2.43786
23.92	3.41202
24.14	8.31343
24.36	10.2907
24.58	5.0507
24.8	1.96583
25.02	5.95792
25.24	12.7571
25.46	1.44921
25.68	14.2842
25.9	2.14947
26.12	3.92142
26.34	2.37248
26.56	4.26345
26.78	6.09094
27	1.8814
27.22	8.53447
27.44	111.171
27.66	10.018
27.88	11.0333
28.1	6.26593
28.32	6.9649
28.54	28.3732
28.76	4.4983
28.98	9.53145
29.2	3.12548
29.42	5.1016
29.64	1.25618
29.86	4.14513
30.08	6.23546
30.3	2.41303
30.52	5.27722
30.74	5.51428
30.96	6.25768
31.18	8.39865
31.4	15.7314
31.62	172.329
31.84	609.771
32.06	13.8508
32.28	10.2276
32.5	4.11946
32.72	8.02953
32.94	7.40046
33.16	3.09665
33.38	8.09573
33.6	13.8026
33.82	0.321943
34.04	2.87341
34.26	9.61388
34.48	6.00737
34.7	8.97699
34.92	6.01615
35.14	5.91373
35.36	4.63899
35.58	0.777821
35.8	5.56123
36.02	6.82327
36.24	3.9109
36.46	3.14698
36.68	3.24751
36.9	5.28398
37.12	12.7344
37.34	7.26143
37.56	5.19078
37.78	14.3526
38	8.59042
38.22	7.72532
38.44	3.86895
38.66	6.88072
38.88	11.8688
39.1	2.74737
39.32	0.756407
39.54	11.9382
39.76	6.57013
39.98	4.53966
40.2	10.4603
40.42	6.31743
40.64	7.17237
40.86	19.9952
41.08	3.85918
41.3	2.24193
41.52	9.63362
41.74	13.1677
41.96	8.12026
42.18	1.02834
42.4	1.92629
42.62	9.9499
42.84	6.74306
43.06	3.52479
43.28	1.43507
43.5	4.53996
43.72	1.14623
43.94	13.8126
44.16	8.47883
44.38	0.151869
44.6	4.41695
44.82	7.08296
45.04	8.66954
45.26	37.682
45.48	755.789
45.7	49.7115
45.92	8.26614
46.14	9.5273
46.36	6.93088
46.58	9.27245
46.8	2.63081
47.02	1.98216
47.24	7.28251
47.46	9.87834
47.68	9.98428
47.9	10.1491
48.12	5.35941
48.34	5.129
48.56	8.67847
48.78	8.93309
49	0.142011
49.22	4.39511
49.44	14.6671
49.66	9.87003
49.88	2.20848
50.1	5.05515
50.32	4.15373
50.54	2.36379
50.76	13.3959
50.98	8.09318
51.2	2.91423
51.42	8.40262
51.64	5.32605
51.86	13.3536
52.08	7.45871
52.3	4.36644
52.52	0.13822
52.74	10.8471
52.96	3.71557
53.18	5.74232
53.4	1.77144
53.62	6.7593
53.84	16.7525
54.06	11.8863
54.28	6.89731
54.5	2.89202
54.72	14.0865
54.94	0.758897
55.16	10.2308
55.38	10.1459
55.6	8.06632
55.82	7.99685
56.04	4.86663
56.26	8.61698
56.48	165.846
56.7	40.861
56.92	6.92415
57.14	5.07469
57.36	4.11572
57.58	3.39753
57.8	5.51221
58.02	1.61246
58.24	3.69659
58.46	3.6092
58.68	2.75684
58.9	9.58153
59.12	7.57674
59.34	0.595121
59.56	1.3522
59.78	8.59544
60	2.62642
60.22	2.77736
60.44	5.00855
60.66	0.213835
60.88	1.54337
61.1	8.91814
61.32	6.28648
61.54	0.346307
61.76	8.34588
61.98	5.34352
62.2	2.28161
62.42	1.18582
62.64	7.16202
62.86	0.259051
63.08	9.14494
63.3	5.1061
63.52	4.05363
63.74	5.77095
63.96	0.21124
64.18	2.84697
64.4	6.66408
64.62	2.60419
64.84	3.91324
65.06	6.45402
65.28	5.25094
65.5	6.94821
65.72	5.61894
65.94	5.23975
66.16	54.0671
66.38	69.9862
66.6	13.9492
66.82	6.97978
67.04	2.81364
67.26	1.92884
67.48	6.22118
67.7	1.30167
67.92	13.9275
68.14	3.10719
68.36	2.40243
68.58	6.75769
68.8	3.94224
69.02	6.89369
69.24	3.97683
69.46	5.82895
69.68	2.60712
69.9	5.91434
70.12	3.5749
70.34	6.50729
70.56	8.41115
70.78	2.12509
71	1.20882
71.22	6.22443
71.44	4.17509
71.66	5.19703
71.88	5.14594
72.1	6.06174
72.32	5.75255
72.54	3.82952
72.76	2.08501
72.98	8.95756
73.2	7.01916
73.42	4.72643
73.64	2.33833
73.86	5.10266
74.08	14.7987
74.3	2.56808
74.52	4.3367
74.74	3.99845
74.96	3.18947
75.18	36.7816
75.4	66.7836
75.62	26.5989
75.84	3.1852
76.06	1.52924
76.28	0.748495
76.5	3.22818
76.72	7.59039
76.94	0.993773
77.16	5.02315
77.38	1.8214
77.6	4.38239
77.82	18.8145
78.04	6.80256
78.26	9.72882
78.48	2.6586
78.7	4.58087
78.92	4.40754
79.14	4.58908
79.36	7.57233
79.58	4.66389
79.8	10.5271
80.02	2.44286
80.24	4.42784
80.46	2.53413
80.68	4.4557
80.9	12.4254
81.12	8.46696
81.34	4.4118
81.56	2.24809
81.78	2.37808
82	1.20269
82.22	11.1253
82.44	9.98956
82.66	0.662635
82.88	8.28592
83.1	0.013519
83.32	0.878234
83.54	5.75957
83.76	7.80914
83.98	77.6339
84.2	44.6666
84.42	15.7377
84.64	0.037964
84.86	10.1319
85.08	4.28642
85.3	5.44082
85.52	8.70023
85.74	3.82324
85.96	1.01458
86.18	8.9588
86.4	11.0377
86.62	9.85202
86.84	6.03706
87.06	3.94573
87.28	4.98907
87.5	4.13445
87.72	7.279
87.94	4.58984
88.16	4.88992
88.38	10.0108
88.6	2.32778
88.82	3.57137
89.04	7.78134
89.26	6.1837
89.48	9.17249
89.7	2.38002
89.92	2.10826
