Measurement: Powder, Xray Data XY Processed
Mineral: Halite
Rruff sample: R070586
Ideal chemistry: NaCl
Locality: Heringen, Werra Valley, Hesse, Germany
Source: James Shigley
Description: Colorless to blue-tinted crystal fragments
Diffraction sample description: Powder
Measured chemistry: Na_1.00_Cl_1.00_
Cell parameters: a: 5.6429(1) b: 5.6429(1) c: 5.6429(1) alpha: 90 beta: 90 gamma: 90 volume: 179.68(1) crystal system: cubic
x	intensity
5	0
5.22	4.78168
5.44	17.3021
5.66	11.1084
5.88	7.64113
6.1	14.2141
6.32	10.9672
6.54	8.87373
6.76	21.827
6.98	18.7684
7.2	7.73922
7.42	11.1587
7.64	10.0711
7.86	14.1519
8.08	7.16056
8.3	10.9322
8.52	4.33477
8.74	11.3148
8.96	6.63559
9.18	19.0968
9.4	1.31862
9.62	6.45691
9.84	3.81422
10.06	5.2219
10.28	2.28533
10.5	4.44259
10.72	6.31121
10.94	0.033009
11.16	7.4268
11.38	10.0352
11.6	11.477
11.82	4.10492
12.04	8.00588
12.26	11.7338
12.48	13.2536
12.7	5.34033
12.92	13.0735
13.14	8.02881
13.36	18.3452
13.58	11.117
13.8	23.4336
14.02	7.84806
14.24	8.43643
14.46	24.0109
14.68	18.6754
14.9	9.98754
15.12	22.526
15.34	20.4982
15.56	16.4909
15.78	12.7477
16	5.52625
16.22	18.1701
16.44	25.9329
16.66	8.50687
16.88	3.29636
17.1	10.6214
17.32	4.57405
17.54	19.2213
17.76	18.8839
17.98	12.8518
18.2	12.2426
18.42	10.1563
18.64	14.0891
18.86	0.018082
19.08	16.7974
19.3	4.81014
19.52	14.1633
19.74	0.318806
19.96	2.38028
20.18	11.1684
20.4	11.9722
20.62	6.93636
20.84	3.16
21.06	4.52776
21.28	11.235
21.5	1.29326
21.72	15.6255
21.94	3.86058
22.16	16.1097
22.38	6.05729
22.6	9.62847
22.82	18.0548
23.04	5.04789
23.26	9.47257
23.48	13.8443
23.7	4.54568
23.92	6.79397
24.14	9.76599
24.36	2.60496
24.58	9.47585
24.8	4.25285
25.02	0.397385
25.24	11.9251
25.46	5.7676
25.68	5.17812
25.9	11.4794
26.12	1.25822
26.34	12.7694
26.56	3.82397
26.78	18.5664
27	3.75662
27.22	18.0434
27.44	56.4254
27.66	9.81217
27.88	9.17303
28.1	19.3239
28.32	11.7369
28.54	43.7337
28.76	19.5166
28.98	2.83032
29.2	24.3782
29.42	9.61635
29.64	7.79657
29.86	13.9229
30.08	6.803
30.3	6.40087
30.52	8.50189
30.74	7.33975
30.96	10.0963
31.18	34.1659
31.4	21.5656
31.62	517.52
31.84	439.218
32.06	18.5256
32.28	13.9658
32.5	15.8905
32.72	16.9853
32.94	4.24791
33.16	19.8818
33.38	19.3479
33.6	5.78798
33.82	4.0538
34.04	22.2305
34.26	0.81665
34.48	7.98895
34.7	8.44307
34.92	0.05492
35.14	17.0336
35.36	7.64948
35.58	11.9541
35.8	9.23661
36.02	6.52615
36.24	10.3047
36.46	5.72149
36.68	9.11007
36.9	8.09905
37.12	13.5187
37.34	0.156652
37.56	10.1453
37.78	19.4445
38	0.378542
38.22	2.78618
38.44	6.75715
38.66	3.48366
38.88	9.65135
39.1	15.8852
39.32	16.0644
39.54	0.187178
39.76	20.2342
39.98	14.307
40.2	12.0951
40.42	4.05619
40.64	14.2679
40.86	23.3177
41.08	12.0403
41.3	8.73273
41.52	3.29867
41.74	14.9974
41.96	10.9182
42.18	12.7571
42.4	2.54891
42.62	4.57266
42.84	8.55747
43.06	7.36037
43.28	2.57379
43.5	4.04367
43.72	21.1838
43.94	13.2513
44.16	6.21171
44.38	2.92638
44.6	2.9063
44.82	6.8835
45.04	19.5366
45.26	45.7625
45.48	361.208
45.7	46.1988
45.92	27.3192
46.14	6.15191
46.36	3.80186
46.58	1.34182
46.8	9.85681
47.02	10.8894
47.24	8.61273
47.46	3.60195
47.68	12.4755
47.9	8.5153
48.12	2.9718
48.34	18.3298
48.56	4.86964
48.78	3.30576
49	7.56549
49.22	3.8273
49.44	12.6492
49.66	4.95351
49.88	13.0921
50.1	10.9971
50.32	9.12521
50.54	21.5279
50.76	23.5291
50.98	11.3708
51.2	7.25983
51.42	8.64875
51.64	8.00528
51.86	8.30393
52.08	11.4493
52.3	4.5756
52.52	1.49494
52.74	12.4131
52.96	10.4671
53.18	9.66541
53.4	5.57881
53.62	7.63421
53.84	26.5426
54.06	19.3605
54.28	3.89195
54.5	13.4454
54.72	7.882
54.94	4.99117
55.16	2.97763
55.38	4.84028
55.6	7.66889
55.82	6.62978
56.04	8.54376
56.26	8.57966
56.48	54.8025
56.7	28.9715
56.92	7.27349
57.14	6.94787
57.36	3.00722
57.58	4.35935
57.8	0.593211
58.02	6.92297
58.24	5.19975
58.46	1.3814
58.68	7.63197
58.9	11.8289
59.12	7.76806
59.34	6.41181
59.56	13.6292
59.78	6.90644
60	5.97597
60.22	12.9029
60.44	0.023179
60.66	10.1026
60.88	11.2141
61.1	7.97598
61.32	2.8972
61.54	4.90527
61.76	7.04838
61.98	7.55659
62.2	1.39782
62.42	9.67048
62.64	5.87671
62.86	7.04517
63.08	16.0809
63.3	4.01959
63.52	4.72695
63.74	6.65024
63.96	5.65253
64.18	6.56628
64.4	4.17698
64.62	7.16883
64.84	10.992
65.06	4.70386
65.28	15.4316
65.5	9.05087
65.72	3.14869
65.94	13.8599
66.16	61.0422
66.38	42.8504
66.6	11.7404
66.82	11.6987
67.04	10.62
67.26	2.74893
67.48	0.005225
67.7	7.48792
67.92	6.69727
68.14	1.93165
68.36	8.52785
68.58	9.46949
68.8	0.706503
69.02	3.89206
69.24	10.2392
69.46	7.5369
69.68	4.55294
69.9	9.45143
70.12	11.6105
70.34	1.50272
70.56	3.38167
70.78	1.84718
71	6.73279
71.22	3.77889
71.44	3.94777
71.66	3.77578
71.88	8.49731
72.1	9.28984
72.32	2.16305
72.54	8.23492
72.76	7.21901
72.98	3.23048
73.2	19.1485
73.42	7.32486
73.64	10.3709
73.86	3.1397
74.08	0.074226
74.3	2.83759
74.52	2.21217
74.74	3.68592
74.96	17.2802
75.18	40.1922
75.4	43.4297
75.62	24.8112
75.84	3.68774
76.06	0.400592
76.28	1.73852
76.5	2.89846
76.72	5.03488
76.94	1.22602
77.16	8.53342
77.38	4.55523
77.6	8.81116
77.82	2.7968
78.04	5.78202
78.26	5.84256
78.48	2.93679
78.7	9.9749
78.92	4.1276
79.14	4.19369
79.36	10.3861
79.58	6.33854
79.8	11.5237
80.02	2.40966
80.24	6.36442
80.46	9.40688
80.68	5.26497
80.9	7.20345
81.12	19.4337
81.34	7.3164
81.56	4.28943
81.78	7.09725
82	2.47946
82.22	3.41291
82.44	12.2971
82.66	3.20576
82.88	0.857886
83.1	3.8062
83.32	13.6911
83.54	9.19488
83.76	9.56939
83.98	36.806
84.2	25.7386
84.42	1.21121
84.64	10.0575
84.86	4.73289
85.08	1.50665
85.3	8.53238
85.52	6.69234
85.74	1.02916
85.96	7.44402
86.18	8.9004
86.4	4.10631
86.62	9.40724
86.84	8.64776
87.06	7.82869
87.28	4.70191
87.5	13.8613
87.72	10.0681
87.94	7.32869
88.16	1.11387
88.38	3.26053
88.6	9.40381
88.82	12.427
89.04	1.63648
89.26	7.42863
89.48	3.7175
89.7	7.64325
89.92	15.823
