Measurement: Powder, Xray Data XY Processed
Mineral: Hambergite
Rruff sample: R050603
Ideal chemistry: Be_2_BO_3_(OH)
Locality: Momeik, Burma
Source: Bill Larson
Description: Colorless fragment from a striated prismatic crystal
Diffraction sample description: Powder
Cell parameters: a: 9.7668(3) b: 12.1925(5) c: 4.4318(2) alpha: 90. beta: 90. gamma: 90. volume: 527.76(3) crystal system: orthorhombic
x	intensity
5	0
5.22	2.139
5.44	12.558
5.66	6.839
5.88	11.487
6.1	20.519
6.32	10.919
6.54	18.677
6.76	8.363
6.98	4.997
7.2	9.013
7.42	2.676
7.64	6.32
7.86	2.859
8.08	5.715
8.3	4.979
8.52	5.995
8.74	6.918
8.96	20.133
9.18	7.105
9.4	11.318
9.62	4.157
9.84	1.274
10.06	9.801
10.28	5.897
10.5	0.622
10.72	7.863
10.94	6.052
11.16	3.243
11.38	4.553
11.6	6.604
11.82	9.559
12.04	5.702
12.26	3.287
12.48	4.334
12.7	10.317
12.92	3.232
13.14	5.351
13.36	8.179
13.58	1.831
13.8	0.524
14.02	14.526
14.24	1.445
14.46	38.374
14.68	7.37
14.9	6.25
15.12	1.48
15.34	7.495
15.56	12.406
15.78	6.785
16	3.751
16.22	7.166
16.44	13.09
16.66	3.029
16.88	5.015
17.1	1.874
17.32	8.861
17.54	3.839
17.76	3.416
17.98	2.453
18.2	5.922
18.42	3.433
18.64	2.45
18.86	0.894
19.08	2.727
19.3	17.336
19.52	537.001
19.74	15.385
19.96	10.806
20.18	7.993
20.4	4.232
20.62	13.621
20.84	160.221
21.06	21.506
21.28	1.327
21.5	5.701
21.72	1.163
21.94	13.617
22.16	6.019
22.38	6.39
22.6	18.575
22.82	4.815
23.04	21.01
23.26	1001.22
23.48	24.901
23.7	10.592
23.92	0.42
24.14	12.269
24.36	12.574
24.58	1.712
24.8	164.042
25.02	8.204
25.24	9.072
25.46	2.179
25.68	24.391
25.9	7.042
26.12	7.244
26.34	18.192
26.56	150.463
26.78	11.368
27	4.789
27.22	0.279
27.44	1.123
27.66	20.172
27.88	22.515
28.1	495.941
28.32	29.036
28.54	2859.81
28.76	22.852
28.98	8.879
29.2	479.923
29.42	20.852
29.64	7.671
29.86	8.606
30.08	5.9
30.3	0.977
30.52	7.104
30.74	16.012
30.96	78.108
31.18	9.902
31.4	0.526
31.62	1.459
31.84	11.249
32.06	1.824
32.28	8.377
32.5	8.657
32.72	3.831
32.94	9.047
33.16	14.696
33.38	11.68
33.6	3.229
33.82	9.926
34.04	18.795
34.26	5.642
34.48	5.287
34.7	31.94
34.92	7.733
35.14	51.412
35.36	9.278
35.58	8.552
35.8	55.119
36.02	10.059
36.24	3.034
36.46	23.123
36.68	6.89
36.9	3.162
37.12	1.006
37.34	51.603
37.56	103.535
37.78	12.041
38	14.255
38.22	4.89
38.44	6.958
38.66	1.883
38.88	3.215
39.1	7.835
39.32	2.261
39.54	11.228
39.76	10.958
39.98	5.44
40.2	13.703
40.42	59.002
40.64	25.007
40.86	308.803
41.08	21.203
41.3	224.264
41.52	13.17
41.74	20.313
41.96	2.38
42.18	4.606
42.4	203.713
42.62	3.375
42.84	122.608
43.06	15.196
43.28	521.5
43.5	19.793
43.72	0.702
43.94	8.713
44.16	0.165
44.38	44.139
44.6	46.237
44.82	24.513
45.04	2.187
45.26	7.498
45.48	41.339
45.7	45.895
45.92	8.463
46.14	4.78
46.36	49.721
46.58	13.93
46.8	1.5
47.02	0.858
47.24	0.097
47.46	8.227
47.68	43.7
47.9	0.025
48.12	3.928
48.34	11.398
48.56	8.232
48.78	2.267
49	6.25
49.22	6.078
49.44	4.649
49.66	22.025
49.88	11.888
50.1	49.769
50.32	71.7
50.54	9.614
50.76	6.045
50.98	7.989
51.2	8.015
51.42	5.024
51.64	37.215
51.86	6.387
52.08	8.903
52.3	18.31
52.52	2.841
52.74	9.714
52.96	63.199
53.18	23.435
53.4	2.784
53.62	4.37
53.84	6.381
54.06	5.435
54.28	5.092
54.5	13.437
54.72	6.299
54.94	19.64
55.16	10.471
55.38	4.72
55.6	1.547
55.82	2.679
56.04	1.646
56.26	8.634
56.48	4.707
56.7	4.919
56.92	9.048
57.14	8.447
57.36	19.422
57.58	16.395
57.8	16.514
58.02	0.233
58.24	6.066
58.46	4.249
58.68	5.259
58.9	6.082
59.12	3.07
59.34	7.789
59.56	7.243
59.78	3.135
60	9.22
60.22	6.059
60.44	5.273
60.66	51.271
60.88	20.37
61.1	1.31
61.32	1.109
61.54	0.29
61.76	8.776
61.98	2.097
62.2	5.575
62.42	1.669
62.64	13.163
62.86	4.972
63.08	4.135
63.3	2.955
63.52	4.665
63.74	5.422
63.96	5.202
64.18	8.791
64.4	2.55
64.62	2.204
64.84	6.005
65.06	2.908
65.28	7.855
65.5	15.743
65.72	6.857
65.94	0.87
66.16	0.257
66.38	0.704
66.6	4.718
66.82	1.256
67.04	9.667
67.26	1.618
67.48	7.142
67.7	21.025
67.92	17.087
68.14	13.804
68.36	11.539
68.58	34.651
68.8	22.551
69.02	1.785
69.24	0.122
69.46	1.294
69.68	6.521
69.9	7.777
70.12	1.04
70.34	3.036
70.56	7.456
70.78	37.798
71	6.653
71.22	4.51
71.44	11.505
71.66	11.386
71.88	8.29
72.1	8.327
72.32	6.082
72.54	4.792
72.76	13.554
72.98	9.104
73.2	4.264
73.42	0.554
73.64	76.323
73.86	58.328
74.08	11.092
74.3	9.31
74.52	4.339
74.74	5.643
74.96	1.102
75.18	5.934
75.4	7.504
75.62	25.731
75.84	15.028
76.06	7.294
76.28	1.458
76.5	1.144
76.72	10.231
76.94	22.306
77.16	9.348
77.38	4.397
77.6	1.992
77.82	7.339
78.04	21.481
78.26	17.443
78.48	3.507
78.7	14.339
78.92	10.471
79.14	5.24
79.36	5.027
79.58	6.686
79.8	2.295
80.02	9.839
80.24	12.847
80.46	7.28
80.68	15.98
80.9	3.791
81.12	12.496
81.34	15.129
81.56	2.716
81.78	7.316
82	9.962
82.22	7.394
82.44	13.017
82.66	2.79
82.88	2.497
83.1	5.955
83.32	0.268
83.54	8.697
83.76	7.003
83.98	5.839
84.2	4.988
84.42	5.89
84.64	11.334
84.86	4.33
85.08	7.217
85.3	1.995
85.52	2.937
85.74	2.894
85.96	7.745
86.18	6.788
86.4	2.49
86.62	8.34
86.84	3.814
87.06	5.441
87.28	0.523
87.5	3.637
87.72	5.84
87.94	3.264
88.16	0.616
88.38	3.083
88.6	9.205
88.82	5.271
89.04	10.192
89.26	11.423
89.48	2.397
89.7	7.339
89.92	2.865
