Measurement: Powder, Xray Data XY Processed
Mineral: Hambergite
Rruff sample: R050672
Ideal chemistry: Be_2_BO_3_(OH)
Locality: Anjanabonoina, Madagascar
Source: University of Arizona Mineral Museum
Description: Pale gray prismatic crystal
Diffraction sample description: Powder
Cell parameters: a: 9.7633(4) b: 12.2096(4) c: 4.4339(2) alpha: 90. beta: 90. gamma: 90. volume: 528.55(2) crystal system: orthorhombic
x	intensity
5	0
5.22	3.247
5.44	13.612
5.66	3.621
5.88	21.106
6.1	3.103
6.32	17.005
6.54	12.698
6.76	0.465
6.98	13.2
7.2	9.65
7.42	0.361
7.64	10.216
7.86	11.799
8.08	4.233
8.3	8.12
8.52	5.519
8.74	12.425
8.96	2.529
9.18	25.254
9.4	11.271
9.62	0.369
9.84	9.78
10.06	2.285
10.28	5.169
10.5	14.858
10.72	1.951
10.94	17.233
11.16	15.925
11.38	1.047
11.6	22.303
11.82	16.349
12.04	12.693
12.26	0.008
12.48	15.2
12.7	5.107
12.92	2.87
13.14	25.23
13.36	0.864
13.58	17.892
13.8	2.336
14.02	1.456
14.24	8.961
14.46	16.32
14.68	15.207
14.9	16.455
15.12	1.893
15.34	7.824
15.56	13.218
15.78	12.239
16	15.465
16.22	4.965
16.44	17.453
16.66	13.756
16.88	12.288
17.1	9.392
17.32	13.894
17.54	8.915
17.76	22.111
17.98	11.113
18.2	6.415
18.42	8.442
18.64	19.83
18.86	12.128
19.08	10.334
19.3	6.696
19.52	65.418
19.74	28.585
19.96	3.899
20.18	8.621
20.4	9.39
20.62	13.314
20.84	0.847
21.06	36.996
21.28	1.252
21.5	6.582
21.72	11.652
21.94	15.377
22.16	8.908
22.38	6.573
22.6	14.051
22.82	10.544
23.04	20.429
23.26	139.398
23.48	116.625
23.7	14.446
23.92	24.176
24.14	8.637
24.36	11.839
24.58	7.012
24.8	78.362
25.02	8.061
25.24	10.293
25.46	22.362
25.68	14.747
25.9	15.463
26.12	15.782
26.34	8.772
26.56	22.663
26.78	25.589
27	0.787
27.22	8.279
27.44	9.451
27.66	1.177
27.88	9.649
28.1	90.998
28.32	45.685
28.54	749.308
28.76	43.355
28.98	25.558
29.2	75.476
29.42	37.078
29.64	1.449
29.86	15.876
30.08	21.38
30.3	0.488
30.52	13.027
30.74	4.923
30.96	123.841
31.18	11.599
31.4	18.892
31.62	7.58
31.84	9.503
32.06	15.339
32.28	6.711
32.5	9.204
32.72	4.01
32.94	16.494
33.16	7.475
33.38	3.637
33.6	6.162
33.82	13.086
34.04	14.144
34.26	17.385
34.48	0.421
34.7	61.831
34.92	12.016
35.14	184.886
35.36	22.455
35.58	9.619
35.8	57.396
36.02	11.074
36.24	5.382
36.46	5.347
36.68	4.623
36.9	26.915
37.12	6.324
37.34	74.274
37.56	259.758
37.78	19.564
38	13.816
38.22	12.741
38.44	16.08
38.66	6.386
38.88	9.53
39.1	9.252
39.32	0.621
39.54	4.686
39.76	24.221
39.98	8.049
40.2	7.883
40.42	41.208
40.64	20.397
40.86	59.04
41.08	77.612
41.3	44.656
41.52	17.214
41.74	29.368
41.96	2.004
42.18	5.298
42.4	34.531
42.62	45.183
42.84	9.74
43.06	36.825
43.28	248.206
43.5	17.684
43.72	0.49
43.94	5.418
44.16	10.883
44.38	14.273
44.6	39.693
44.82	0.582
45.04	14.754
45.26	1.328
45.48	22.639
45.7	98.181
45.92	2.394
46.14	7.362
46.36	114.821
46.58	7.334
46.8	2.124
47.02	20.011
47.24	5.686
47.46	11.08
47.68	84.486
47.9	2.799
48.12	9.187
48.34	7.515
48.56	18.524
48.78	11.703
49	6.915
49.22	1.861
49.44	7.282
49.66	10.374
49.88	25.643
50.1	17.623
50.32	54.069
50.54	7.819
50.76	4.689
50.98	4.845
51.2	2.954
51.42	0.986
51.64	40.065
51.86	35.079
52.08	9.126
52.3	21.014
52.52	7.376
52.74	19.584
52.96	13.054
53.18	69.348
53.4	10.9
53.62	8.487
53.84	0.128
54.06	0.488
54.28	9.209
54.5	19.651
54.72	15.907
54.94	34.146
55.16	8.99
55.38	16.807
55.6	2.668
55.82	5.46
56.04	12.196
56.26	13.291
56.48	8.993
56.7	9.824
56.92	14.027
57.14	6.423
57.36	8.739
57.58	12.91
57.8	2.029
58.02	5.039
58.24	2.165
58.46	7.593
58.68	20.744
58.9	10.826
59.12	10.203
59.34	1.959
59.56	13.583
59.78	8.433
60	11.543
60.22	2.917
60.44	11.176
60.66	50.553
60.88	23.48
61.1	10.065
61.32	14.84
61.54	8.533
61.76	3.925
61.98	8.154
62.2	4.438
62.42	9.499
62.64	15.651
62.86	7.988
63.08	2.941
63.3	5.516
63.52	11.869
63.74	7.259
63.96	5.221
64.18	5.935
64.4	10.662
64.62	14.327
64.84	0.878
65.06	21.805
65.28	8.374
65.5	27.181
65.72	9.876
65.94	9.103
66.16	9.561
66.38	6.134
66.6	14.399
66.82	1.148
67.04	4.296
67.26	10.965
67.48	9.079
67.7	6.25
67.92	8.358
68.14	16.041
68.36	2.166
68.58	19.546
68.8	0.708
69.02	9.558
69.24	17.291
69.46	4.053
69.68	5.532
69.9	10.849
70.12	4.864
70.34	12.881
70.56	7.031
70.78	16.123
71	13.233
71.22	10.501
71.44	10.773
71.66	4.764
71.88	8.724
72.1	7.621
72.32	1.126
72.54	7.014
72.76	12.633
72.98	9.32
73.2	9.275
73.42	14.125
73.64	14.278
73.86	14.951
74.08	10.089
74.3	1.429
74.52	6.703
74.74	14.899
74.96	6.022
75.18	5.39
75.4	4.401
75.62	14.641
75.84	12.481
76.06	11.67
76.28	8.721
76.5	0.968
76.72	8.583
76.94	5.581
77.16	17.769
77.38	1.775
77.6	0.477
77.82	6.676
78.04	26.594
78.26	21.872
78.48	8.917
78.7	6.625
78.92	4.155
79.14	5.712
79.36	7.368
79.58	5.172
79.8	9.888
80.02	2.446
80.24	26.531
80.46	3.315
80.68	22.78
80.9	9.196
81.12	13.949
81.34	5.317
81.56	3.32
81.78	3.885
82	7.404
82.22	5.106
82.44	14.574
82.66	4.17
82.88	6.175
83.1	10.86
83.32	10.382
83.54	8.441
83.76	11.789
83.98	8.706
84.2	6.825
84.42	11.933
84.64	18.504
84.86	11.457
85.08	8.182
85.3	6.335
85.52	7.226
85.74	7.854
85.96	8.59
86.18	3.574
86.4	5.427
86.62	10.247
86.84	19.845
87.06	14.991
87.28	10.049
87.5	9.115
87.72	11.379
87.94	3.482
88.16	6.896
88.38	1.314
88.6	6.987
88.82	9.983
89.04	10.581
89.26	4.757
89.48	19.297
89.7	9.259
89.92	5.394
