Measurement: Powder, Xray Data XY Processed
Mineral: Harmotome
Rruff sample: R070016
Ideal chemistry: Ba_2_(Si_12_Al_4_)O_32_12H_2_O
Locality: Idar-Oberstein, Germany
Source: Michael Scott
Description: Colorless to milky-white prismatic crystals
Diffraction sample description: Powder
Cell parameters: a: 9.865(4) b: 14.1254(6) c: 8.693(4) alpha: 90 beta: 124.70(4) gamma: 90 volume: 996.0(4) crystal system: monoclinic
x	intensity
5	0
5.22	5.43956
5.44	2.89336
5.66	8.62898
5.88	4.71617
6.1	0.590262
6.32	8.40606
6.54	1.98132
6.76	11.7037
6.98	7.35814
7.2	0.948495
7.42	3.11016
7.64	1.6459
7.86	6.89689
8.08	13.3723
8.3	5.82184
8.52	5.89531
8.74	1.9993
8.96	1.4119
9.18	1.96048
9.4	3.10836
9.62	4.17136
9.84	6.65176
10.06	4.55822
10.28	5.44632
10.5	3.25537
10.72	7.26572
10.94	235.19
11.16	6.09007
11.38	7.94932
11.6	1.52861
11.82	0.127869
12.04	6.04888
12.26	5.63283
12.48	35.7374
12.7	7.77092
12.92	7.70698
13.14	2.8743
13.36	5.87049
13.58	9.85107
13.8	14.8282
14.02	15.948
14.24	5.66863
14.46	0.308086
14.68	0.315873
14.9	11.3959
15.12	6.68241
15.34	5.8312
15.56	7.84245
15.78	9.96219
16	13.1459
16.22	6.20568
16.44	4.02878
16.66	8.03474
16.88	3.19626
17.1	7.95425
17.32	4.10787
17.54	5.98058
17.76	12.1397
17.98	7.32131
18.2	4.5175
18.42	5.48877
18.64	5.58133
18.86	5.94111
19.08	5.34463
19.3	0.230367
19.52	8.14695
19.74	3.83641
19.96	3.63066
20.18	4.31454
20.4	2.15367
20.62	10.7206
20.84	16.4613
21.06	3.21124
21.28	1.11989
21.5	5.63897
21.72	60.4706
21.94	39.5605
22.16	10.6945
22.38	2.94627
22.6	3.60756
22.82	53.7754
23.04	1.00229
23.26	6.20074
23.48	3.5084
23.7	11.3782
23.92	2.68296
24.14	6.68987
24.36	9.6013
24.58	9.41219
24.8	10.5187
25.02	6.6514
25.24	16.3621
25.46	7.0387
25.68	12.6124
25.9	0.242446
26.12	8.2907
26.34	0.07099
26.56	15.4421
26.78	34.8781
27	8.39931
27.22	2.50546
27.44	9.8696
27.66	29.435
27.88	24.1266
28.1	13.8297
28.32	23.578
28.54	94.1501
28.76	1.79453
28.98	8.57847
29.2	19.0251
29.42	1.24884
29.64	3.02019
29.86	4.57752
30.08	8.81088
30.3	6.09045
30.52	6.69406
30.74	31.3547
30.96	23.0103
31.18	10.9616
31.4	17.4767
31.62	10.0178
31.84	3.30582
32.06	2.02228
32.28	1.4223
32.5	14.0355
32.72	8.8097
32.94	35.8022
33.16	17.3971
33.38	30.5155
33.6	85.8383
33.82	8.56462
34.04	1.18843
34.26	5.27206
34.48	0.574223
34.7	3.98454
34.92	5.9275
35.14	11.9905
35.36	2.26224
35.58	32.4037
35.8	12.6682
36.02	9.24165
36.24	8.35299
36.46	14.3587
36.68	16.4098
36.9	0.320184
37.12	7.31405
37.34	4.60508
37.56	1.52368
37.78	3.50684
38	8.25032
38.22	18.983
38.44	14.6202
38.66	5.08034
38.88	12.5967
39.1	6.50466
39.32	12.4565
39.54	3.45635
39.76	4.84922
39.98	1.96863
40.2	6.20412
40.42	18.8146
40.64	7.36411
40.86	1.36627
41.08	1.8557
41.3	2.07437
41.52	1.275
41.74	2.46217
41.96	16.3816
42.18	6.27114
42.4	11.322
42.62	8.91468
42.84	0.444009
43.06	0.68018
43.28	7.813
43.5	1.1243
43.72	4.18594
43.94	11.2587
44.16	16.229
44.38	7.28121
44.6	2.43136
44.82	12.3509
45.04	19.0809
45.26	8.13353
45.48	18.1539
45.7	4.90833
45.92	10.0186
46.14	9.026
46.36	21.205
46.58	20.32
46.8	2.26876
47.02	5.35028
47.24	8.38046
47.46	8.59719
47.68	7.07653
47.9	2.34728
48.12	2.42649
48.34	9.6106
48.56	5.84587
48.78	2.05286
49	2.86144
49.22	1.63927
49.44	9.53094
49.66	8.63037
49.88	8.36068
50.1	17.9591
50.32	15.9776
50.54	6.85394
50.76	13.5334
50.98	8.43117
51.2	6.5744
51.42	1.83197
51.64	1.15973
51.86	13.6082
52.08	7.75643
52.3	2.13376
52.52	6.28066
52.74	7.12856
52.96	3.08011
53.18	7.46486
53.4	21.4011
53.62	28.0938
53.84	14.6734
54.06	0.345687
54.28	3.53812
54.5	10.3764
54.72	5.14926
54.94	20.2491
55.16	2.76054
55.38	14.5215
55.6	0.530905
55.82	5.56936
56.04	10.7095
56.26	3.76743
56.48	4.54825
56.7	4.66641
56.92	2.62077
57.14	5.67615
57.36	4.62001
57.58	6.56224
57.8	0.880417
58.02	13.0185
58.24	4.12234
58.46	5.23762
58.68	2.30966
58.9	7.6389
59.12	6.71312
59.34	3.78492
59.56	4.80395
59.78	1.87066
60	15.9351
60.22	6.00391
60.44	11.9499
60.66	16.1093
60.88	12.2697
61.1	0.920547
61.32	6.23107
61.54	4.38084
61.76	10.444
61.98	6.5194
62.2	0.664511
62.42	5.51841
62.64	3.40574
62.86	14.5755
63.08	6.7522
63.3	1.64034
63.52	3.66778
63.74	1.52344
63.96	0.690515
64.18	0.009248
64.4	15.1944
64.62	4.9323
64.84	13.9082
65.06	1.91419
65.28	6.6479
65.5	1.36452
65.72	8.72215
65.94	10.6302
66.16	4.47287
66.38	4.35724
66.6	0.028887
66.82	2.58687
67.04	5.40514
67.26	4.22245
67.48	5.03085
67.7	3.91318
67.92	4.8307
68.14	13.6473
68.36	21.5972
68.58	0.987157
68.8	5.09477
69.02	11.3529
69.24	0.533314
69.46	9.94749
69.68	4.16514
69.9	8.37128
70.12	1.50636
70.34	5.64696
70.56	12.3985
70.78	7.52163
71	9.53735
71.22	8.46636
71.44	7.3278
71.66	4.47681
71.88	4.36262
72.1	4.35974
72.32	3.53996
72.54	6.72851
72.76	15.9014
72.98	3.94486
73.2	2.76065
73.42	6.89292
73.64	2.85976
73.86	7.86915
74.08	4.6896
74.3	10.6508
74.52	10.4297
74.74	3.48732
74.96	5.44428
75.18	9.26333
75.4	6.31906
75.62	9.02145
75.84	11.9616
76.06	7.13366
76.28	5.12539
76.5	1.05032
76.72	3.09688
76.94	9.37588
77.16	1.24546
77.38	4.17474
77.6	0.763709
77.82	10.3452
78.04	9.03567
78.26	0.192461
78.48	9.2989
78.7	7.41219
78.92	0.502477
79.14	1.61482
79.36	6.7541
79.58	5.93318
79.8	8.03708
80.02	4.05639
80.24	8.94055
80.46	7.38688
80.68	1.27658
80.9	0.971852
81.12	1.90551
81.34	5.82551
81.56	0.822288
81.78	5.51246
82	3.71435
82.22	7.61951
82.44	7.76697
82.66	3.779
82.88	5.74362
83.1	5.91078
83.32	12.0779
83.54	8.13303
83.76	0.817565
83.98	8.12454
84.2	5.41086
84.42	5.13789
84.64	4.12229
84.86	4.98084
85.08	7.02296
85.3	5.07737
85.52	9.93724
85.74	1.91684
85.96	5.9213
86.18	5.93559
86.4	10.2523
86.62	5.99069
86.84	6.15522
87.06	12.2348
87.28	1.57148
87.5	9.59682
87.72	9.67393
87.94	7.82036
88.16	6.80869
88.38	4.02103
88.6	11.2603
88.82	12.9179
89.04	5.97664
89.26	6.75869
89.48	3.77349
89.7	9.03855
89.92	3.39729
