Measurement: Powder, Xray Data XY Processed
Mineral: Harmotome
Rruff sample: R070015
Ideal chemistry: Ba_2_(Si_12_Al_4_)O_32_12H_2_O
Locality: Old Kilpatrick, Dumbartonshire, Scotland
Source: Michael Scott
Description: Colorless blocky crystals
Diffraction sample description: Powder
Measured chemistry: (Ba_1.98_Ti_0.02_)_Σ=2_(Si_11.67_Al_4.33_)O_32_·12H_2_OK_0.16_Na_0.11_Ca_0.01_; H_2_O estimated by difference
Cell parameters: a: 9.8647(4) b: 14.1398(7) c: 8.6975(4) alpha: 90 beta: 124.721(4) gamma: 90 volume: 997.16(6) crystal system: monoclinic
x	intensity
5	0
5.22	14.1858
5.44	7.18861
5.66	8.02205
5.88	9.96843
6.1	12.5739
6.32	12.7224
6.54	13.9834
6.76	11.371
6.98	12.5283
7.2	4.90032
7.42	11.4168
7.64	1.01214
7.86	1.38513
8.08	13.169
8.3	4.72077
8.52	1.96641
8.74	2.55157
8.96	11.9094
9.18	12.1705
9.4	2.49235
9.62	16.7521
9.84	16.8062
10.06	6.89989
10.28	7.67312
10.5	14.0448
10.72	12.5465
10.94	214.62
11.16	19.528
11.38	12.3437
11.6	10.2512
11.82	2.60163
12.04	3.70863
12.26	36.6911
12.48	33.5471
12.7	0.130873
12.92	4.06307
13.14	2.68449
13.36	0.062915
13.58	9.12552
13.8	93.3491
14.02	15.6984
14.24	7.54737
14.46	6.17525
14.68	12.6747
14.9	7.91481
15.12	5.24624
15.34	6.61614
15.56	6.56882
15.78	3.55286
16	9.52132
16.22	9.52998
16.44	2.25509
16.66	15.0546
16.88	6.16672
17.1	2.00908
17.32	6.91251
17.54	19.7973
17.76	16.9451
17.98	9.42801
18.2	4.43385
18.42	6.46097
18.64	2.35939
18.86	7.34207
19.08	1.53065
19.3	8.32696
19.52	1.0595
19.74	5.75071
19.96	5.82644
20.18	0.699918
20.4	9.37829
20.62	67.8139
20.84	7.33703
21.06	0.935395
21.28	9.9926
21.5	9.60974
21.72	123.494
21.94	168.643
22.16	18.7584
22.38	5.80732
22.6	21.3677
22.82	85.8005
23.04	9.07385
23.26	8.51326
23.48	0.770495
23.7	2.83782
23.92	4.06032
24.14	4.24923
24.36	9.4351
24.58	4.32521
24.8	9.21491
25.02	14.0372
25.24	18.7165
25.46	3.87701
25.68	60.926
25.9	11.0221
26.12	26.1161
26.34	1.63155
26.56	7.90547
26.78	2.1199
27	7.32083
27.22	3.17601
27.44	49.2548
27.66	10.6079
27.88	46.5234
28.1	84.0807
28.32	11.4512
28.54	317.848
28.76	10.9941
28.98	69.9263
29.2	4.43287
29.42	4.35093
29.64	2.02838
29.86	13.4331
30.08	1.7902
30.3	8.22936
30.52	13.001
30.74	31.5599
30.96	8.87886
31.18	18.3895
31.4	30.0785
31.62	3.85522
31.84	0.644424
32.06	1.65512
32.28	8.98302
32.5	12.445
32.72	22.2563
32.94	15.0433
33.16	88.3466
33.38	55.6603
33.6	106.542
33.82	12.6897
34.04	32.9398
34.26	3.27663
34.48	1.31489
34.7	16.1059
34.92	1.81552
35.14	20.6429
35.36	6.13796
35.58	48.5803
35.8	26.1511
36.02	1.92822
36.24	4.67267
36.46	36.0078
36.68	3.9616
36.9	8.82044
37.12	4.53275
37.34	0.927832
37.56	13.3003
37.78	26.8727
38	22.1013
38.22	14.8293
38.44	8.66705
38.66	16.2019
38.88	55.8476
39.1	15.9239
39.32	9.14107
39.54	2.58595
39.76	5.67586
39.98	8.5185
40.2	29.7497
40.42	10.3825
40.64	11.6058
40.86	1.28588
41.08	5.40553
41.3	2.70602
41.52	6.85941
41.74	8.58729
41.96	43.0422
42.18	22.9387
42.4	10.4693
42.62	15.0378
42.84	5.75912
43.06	8.51858
43.28	13.3099
43.5	3.41044
43.72	10.1487
43.94	22.9096
44.16	12.9984
44.38	3.68418
44.6	8.28021
44.82	21.8734
45.04	15.6382
45.26	25.574
45.48	2.60168
45.7	2.25948
45.92	14.4497
46.14	17.6424
46.36	13.3788
46.58	48.0564
46.8	7.11565
47.02	4.0935
47.24	3.99114
47.46	8.81116
47.68	13.3149
47.9	19.9451
48.12	9.81227
48.34	5.98062
48.56	2.99427
48.78	10.4419
49	2.64647
49.22	0.596786
49.44	9.85962
49.66	10.9887
49.88	13.5183
50.1	11.0686
50.32	9.60951
50.54	15.8959
50.76	2.98025
50.98	10.2767
51.2	11.8117
51.42	14.1517
51.64	30.9406
51.86	13.86
52.08	11.2969
52.3	0.365309
52.52	2.46412
52.74	4.45949
52.96	5.65048
53.18	14.5084
53.4	38.1168
53.62	34.6358
53.84	13.2054
54.06	4.21489
54.28	11.1655
54.5	14.9162
54.72	25.7158
54.94	17.59
55.16	11.3001
55.38	9.00367
55.6	5.00543
55.82	12.12
56.04	7.21059
56.26	8.38477
56.48	7.69928
56.7	3.92323
56.92	21.0905
57.14	2.38635
57.36	4.5756
57.58	6.91463
57.8	8.4151
58.02	5.69432
58.24	17.1502
58.46	6.76201
58.68	7.07864
58.9	5.95577
59.12	4.85575
59.34	7.9488
59.56	6.0154
59.78	1.02489
60	5.69188
60.22	10.7633
60.44	30.8448
60.66	13.7597
60.88	11.1483
61.1	2.83037
61.32	2.15974
61.54	4.34116
61.76	2.439
61.98	2.48078
62.2	7.71626
62.42	11.5334
62.64	0.594902
62.86	17.5103
63.08	6.39283
63.3	3.01219
63.52	4.90865
63.74	3.83041
63.96	7.85899
64.18	3.93689
64.4	8.97459
64.62	9.76906
64.84	0.703928
65.06	7.4127
65.28	3.56143
65.5	9.37639
65.72	3.47335
65.94	8.67591
66.16	16.6855
66.38	2.68379
66.6	7.69564
66.82	8.99945
67.04	2.87056
67.26	3.78767
67.48	8.78216
67.7	14.5585
67.92	2.2892
68.14	12.1741
68.36	5.31853
68.58	6.54142
68.8	23.3625
69.02	22.3072
69.24	2.10903
69.46	0.512898
69.68	0.05152
69.9	8.08487
70.12	0.24728
70.34	6.42112
70.56	3.73663
70.78	11.7978
71	14.0466
71.22	4.11331
71.44	10.1239
71.66	8.20484
71.88	11.189
72.1	16.8678
72.32	10.8698
72.54	6.93014
72.76	3.96437
72.98	5.64975
73.2	4.82799
73.42	0.108438
73.64	4.95772
73.86	12.8903
74.08	13.6352
74.3	3.66129
74.52	1.33952
74.74	10.6493
74.96	11.8938
75.18	10.1562
75.4	7.29043
75.62	18.2301
75.84	6.63036
76.06	4.47213
76.28	10.355
76.5	11.2392
76.72	4.84786
76.94	5.05822
77.16	3.03854
77.38	0.80097
77.6	0.819961
77.82	7.12105
78.04	2.96369
78.26	5.40588
78.48	7.64892
78.7	7.09712
78.92	4.29427
79.14	1.49135
79.36	12.7456
79.58	13.1765
79.8	10.1255
80.02	5.72903
80.24	7.72905
80.46	16.6456
80.68	2.29206
80.9	9.08743
81.12	2.68562
81.34	9.50547
81.56	3.55381
81.78	0.533533
82	14.113
82.22	11.9806
82.44	10.2345
82.66	10.0954
82.88	0.860915
83.1	1.20317
83.32	9.33456
83.54	5.74837
83.76	1.02416
83.98	2.01863
84.2	6.36172
84.42	3.36405
84.64	5.49328
84.86	0.398396
85.08	17.4151
85.3	3.36539
85.52	1.34362
85.74	1.35921
85.96	11.6498
86.18	2.51456
86.4	8.51286
86.62	7.38294
86.84	6.43146
87.06	0.864484
87.28	5.88674
87.5	0.067043
87.72	8.26577
87.94	0.292952
88.16	6.70841
88.38	4.70102
88.6	7.14068
88.82	2.18217
89.04	8.66002
89.26	3.62808
89.48	0.074779
89.7	4.05805
89.92	5.77765
