Measurement: Powder, Xray Data XY Processed
Mineral: Hausmannite
Rruff sample: R040091
Ideal chemistry: Mn^2+^Mn^3+^_2_O_4_
Locality: Germany
Source: University of Arizona Mineral Museum
Description: Mass of black octahedral crystals
Diffraction sample description: Powder
Measured chemistry: (Mn^2+^_0.96_Zn_0.02_Mg_0.02_)Mn^3+^_2.00_O_4_
Cell parameters: a: 5.7619(3) b: 5.7619(3) c: 9.4530(9) alpha: 90. beta: 90. gamma: 90. volume: 313.84(4) crystal system: tetragonal
x	intensity
5	0
5.22	8.939
5.44	2.532
5.66	17.634
5.88	10.883
6.1	2.838
6.32	3.036
6.54	34.898
6.76	8.842
6.98	12.761
7.2	10.322
7.42	18.049
7.64	1.464
7.86	27.754
8.08	0.724
8.3	13.006
8.52	9.033
8.74	18.034
8.96	5.692
9.18	0.051
9.4	18.375
9.62	5.847
9.84	9.718
10.06	16.968
10.28	12.286
10.5	22.534
10.72	8.936
10.94	25.266
11.16	10.567
11.38	13.815
11.6	2.327
11.82	18.613
12.04	8.756
12.26	3.192
12.48	16.467
12.7	26.448
12.92	24.444
13.14	8.732
13.36	28.742
13.58	11.539
13.8	13.503
14.02	7.533
14.24	9.53
14.46	11.521
14.68	0.69
14.9	5.187
15.12	15.588
15.34	10.812
15.56	10.435
15.78	5.606
16	8.475
16.22	20.194
16.44	9.048
16.66	13.255
16.88	1.111
17.1	20.288
17.32	0.993
17.54	6.331
17.76	6.557
17.98	29.455
18.2	10.937
18.42	20.463
18.64	15.973
18.86	0.057
19.08	8.352
19.3	20.635
19.52	15.724
19.74	20.124
19.96	13.037
20.18	9.88
20.4	16.823
20.62	6.406
20.84	18.591
21.06	24.49
21.28	9.239
21.5	6.732
21.72	11.483
21.94	17.198
22.16	16.516
22.38	14.162
22.6	28.961
22.82	10.364
23.04	28.417
23.26	15.31
23.48	0.572
23.7	11.236
23.92	19.915
24.14	22.443
24.36	0.164
24.58	36.087
24.8	21.298
25.02	19.303
25.24	8.514
25.46	18.096
25.68	15.191
25.9	8.294
26.12	18.337
26.34	15.255
26.56	4.26
26.78	11.944
27	17.43
27.22	7.791
27.44	5.067
27.66	15.253
27.88	14.629
28.1	5.106
28.32	17.096
28.54	11.628
28.76	4.817
28.98	86.908
29.2	15.44
29.42	20.218
29.64	13.018
29.86	10.23
30.08	17.103
30.3	9.156
30.52	0.389
30.74	13.204
30.96	3.737
31.18	28.624
31.4	23.883
31.62	13.987
31.84	15.952
32.06	30.04
32.28	23.563
32.5	130.863
32.72	8.166
32.94	15.066
33.16	17.877
33.38	22.178
33.6	10.307
33.82	19.995
34.04	7.955
34.26	2.718
34.48	12.916
34.7	3.779
34.92	1.181
35.14	11.779
35.36	13.17
35.58	0.538
35.8	23.884
36.02	65.41
36.24	149.442
36.46	23.39
36.68	38.663
36.9	19.757
37.12	6.46
37.34	10.56
37.56	5.983
37.78	11.7
38	18.992
38.22	37.413
38.44	21.344
38.66	11.335
38.88	15.28
39.1	8.195
39.32	1.953
39.54	11.918
39.76	12.102
39.98	25.585
40.2	18.814
40.42	14.995
40.64	28.255
40.86	6.974
41.08	20.198
41.3	3.443
41.52	16.985
41.74	4.115
41.96	31.199
42.18	27.768
42.4	24.853
42.62	15.277
42.84	27.719
43.06	15.986
43.28	4.959
43.5	27.577
43.72	17.145
43.94	6.511
44.16	7.616
44.38	39.504
44.6	38.437
44.82	16.354
45.04	23.945
45.26	6.453
45.48	21.7
45.7	14.894
45.92	3.15
46.14	8.746
46.36	18.458
46.58	18.912
46.8	23.272
47.02	2.737
47.24	4.201
47.46	16.203
47.68	14.661
47.9	0.638
48.12	32.277
48.34	9.023
48.56	23.177
48.78	17.027
49	18.234
49.22	7.835
49.44	13.211
49.66	11.1
49.88	24.045
50.1	12.222
50.32	1.827
50.54	8.817
50.76	28.835
50.98	37.707
51.2	21.122
51.42	14.939
51.64	15.468
51.86	12.404
52.08	14.239
52.3	8.402
52.52	11.61
52.74	19.298
52.96	25.331
53.18	17.669
53.4	0.179
53.62	29.474
53.84	3.336
54.06	31.848
54.28	5.659
54.5	19.841
54.72	11.143
54.94	24.585
55.16	14.315
55.38	16.159
55.6	5.088
55.82	16.775
56.04	38.713
56.26	1.674
56.48	28.634
56.7	16.194
56.92	13.24
57.14	14.631
57.36	12.217
57.58	1.668
57.8	8.481
58.02	9.838
58.24	13.254
58.46	28.306
58.68	34.529
58.9	8.799
59.12	15.608
59.34	5.679
59.56	0.547
59.78	32.218
60	64.161
60.22	31.991
60.44	17.322
60.66	21.367
60.88	11.671
61.1	8.428
61.32	20.429
61.54	15.437
61.76	10.599
61.98	20.621
62.2	32.001
62.42	16.564
62.64	1.407
62.86	28.427
63.08	4.297
63.3	24.787
63.52	20.535
63.74	8.927
63.96	3.467
64.18	11.417
64.4	0.373
64.62	13.423
64.84	38.01
65.06	22.066
65.28	24.22
65.5	21.641
65.72	20.925
65.94	35.259
66.16	30.603
66.38	21.114
66.6	30.85
66.82	5.673
67.04	17.798
67.26	23.819
67.48	6.03
67.7	15.959
67.92	14.237
68.14	19.905
68.36	9.701
68.58	15.047
68.8	16.577
69.02	3.58
69.24	5.598
69.46	27.465
69.68	15.698
69.9	28.79
70.12	19.125
70.34	28.117
70.56	9.388
70.78	0.744
71	6.195
71.22	23.978
71.44	26.712
71.66	9.856
71.88	13.818
72.1	12.172
72.32	3.76
72.54	12.899
72.76	20.782
72.98	2.724
73.2	29.751
73.42	30.846
73.64	18.529
73.86	23.944
74.08	11.772
74.3	6.891
74.52	11.92
74.74	8.596
74.96	4.294
75.18	11.752
75.4	4.801
75.62	27.744
75.84	17.734
76.06	18.457
76.28	4.339
76.5	18.757
76.72	18.613
76.94	10.441
77.16	15.504
77.38	2.756
77.6	38.258
77.82	28.997
78.04	15.206
78.26	19.118
78.48	4.851
78.7	30.788
78.92	2.934
79.14	10.437
79.36	26.312
79.58	2.243
79.8	7.519
80.02	14.17
80.24	28.495
80.46	15.998
80.68	23.982
80.9	0.508
81.12	1.258
81.34	33.849
81.56	12.854
81.78	5.438
82	17.812
82.22	1.44
82.44	25.7
82.66	10.674
82.88	35.022
83.1	22.817
83.32	26.729
83.54	11.487
83.76	9.767
83.98	20.385
84.2	24.005
84.42	4.158
84.64	17.546
84.86	18.548
85.08	9.662
85.3	17.604
85.52	21.291
85.74	2.999
85.96	25.981
86.18	16.087
86.4	17.95
86.62	30.562
86.84	31.555
87.06	14.94
87.28	2.73
87.5	19.946
87.72	14.334
87.94	14.665
88.16	2.157
88.38	26.634
88.6	33.381
88.82	16.01
89.04	26.057
89.26	21.745
89.48	16.492
89.7	13.84
89.92	14.031
