Measurement: Powder, Xray Data XY Processed
Mineral: Hedenbergite
Rruff sample: R060040
Ideal chemistry: CaFe^2+^Si_2_O_6_
Locality: Rio Marina, Elba, Italy
Source: University of Arizona Mineral Museum
Description: Radial aggregate of green thin bladed crystals
Diffraction sample description: Powder
Measured chemistry: Ca_1.00_(Fe^2+^_0.89_Mg_0.09_Mn_0.02_)_Î£=1_Si_2.00_O_6_
Cell parameters: a: 9.846(1) b: 9.0196(8) c: 5.255(1) alpha: 90 beta: 104.90(1) gamma: 90 volume: 450.96(8) crystal system: monoclinic
x	intensity
5	0
5.22	21.837
5.44	0.913
5.66	6.172
5.88	3.168
6.1	7.156
6.32	34.328
6.54	14.76
6.76	2.291
6.98	23.964
7.2	13.936
7.42	16.68
7.64	12.175
7.86	7.738
8.08	5.433
8.3	19.85
8.52	4.511
8.74	3.262
8.96	19.796
9.18	7.499
9.4	3.137
9.62	6.783
9.84	0.257
10.06	12.827
10.28	2.895
10.5	7.988
10.72	5.873
10.94	6.94
11.16	14.734
11.38	9.72
11.6	5.334
11.82	9.136
12.04	11.551
12.26	4.093
12.48	21.284
12.7	11.506
12.92	8.667
13.14	5.581
13.36	19.676
13.58	20.501
13.8	16.434
14.02	12.523
14.24	10.186
14.46	16.096
14.68	17.81
14.9	4.429
15.12	3.09
15.34	6.887
15.56	5.038
15.78	10.235
16	15.39
16.22	8.694
16.44	7.912
16.66	9.323
16.88	10.527
17.1	15.89
17.32	4.185
17.54	4.155
17.76	9.154
17.98	15.008
18.2	22.928
18.42	1.5
18.64	13.233
18.86	17.96
19.08	9.725
19.3	10.713
19.52	11.307
19.74	16.647
19.96	7.732
20.18	13.844
20.4	7.573
20.62	4.568
20.84	11.917
21.06	5.176
21.28	4.248
21.5	16.363
21.72	13.317
21.94	10.63
22.16	16.394
22.38	13.283
22.6	1.619
22.82	16.51
23.04	6.837
23.26	3.886
23.48	10.847
23.7	13.088
23.92	15.896
24.14	27.781
24.36	14.866
24.58	22.637
24.8	7.556
25.02	14.738
25.24	10.805
25.46	0.377
25.68	17.219
25.9	3.732
26.12	5.34
26.34	12.134
26.56	3.719
26.78	0.41
27	9.786
27.22	29.17
27.44	15.852
27.66	5.539
27.88	8.256
28.1	1.97
28.32	15.787
28.54	7.459
28.76	8.058
28.98	10.671
29.2	11.752
29.42	12.103
29.64	11.589
29.86	129.113
30.08	35.137
30.3	12.128
30.52	3.615
30.74	3.629
30.96	25.943
31.18	8.611
31.4	0.053
31.62	2.039
31.84	16.125
32.06	13.353
32.28	16.583
32.5	5.51
32.72	13.897
32.94	19.814
33.16	1.802
33.38	12.516
33.6	1.693
33.82	12.441
34.04	4.089
34.26	3.728
34.48	0.495
34.7	14.212
34.92	27.916
35.14	26.048
35.36	52.501
35.58	15.535
35.8	5.934
36.02	0.533
36.24	16.231
36.46	8.659
36.68	11.387
36.9	3.644
37.12	15.308
37.34	18.181
37.56	0.982
37.78	15.327
38	11.204
38.22	12.872
38.44	0.14
38.66	12.407
38.88	12.418
39.1	8.732
39.32	2.528
39.54	9.154
39.76	11.902
39.98	3.732
40.2	0.314
40.42	19.636
40.64	11.031
40.86	16.384
41.08	4.151
41.3	3.279
41.52	0.75
41.74	16.754
41.96	0.48
42.18	44.026
42.4	5.727
42.62	17.453
42.84	16.513
43.06	10.066
43.28	11.15
43.5	19.316
43.72	6.723
43.94	16.082
44.16	17.892
44.38	5.207
44.6	20.815
44.82	14.07
45.04	11.197
45.26	11.011
45.48	16.195
45.7	17.465
45.92	14.675
46.14	18.294
46.36	10.645
46.58	14.189
46.8	15.219
47.02	4.36
47.24	4.834
47.46	5.902
47.68	4.917
47.9	12.816
48.12	5.875
48.34	3.928
48.56	15.489
48.78	12.335
49	10.927
49.22	5.353
49.44	9.301
49.66	9.801
49.88	15.698
50.1	7.189
50.32	14.873
50.54	11.466
50.76	17.681
50.98	10.589
51.2	2.087
51.42	9.144
51.64	41.671
51.86	12.913
52.08	13.12
52.3	17.062
52.52	3.421
52.74	12.239
52.96	5.16
53.18	15.838
53.4	2.636
53.62	12.236
53.84	5.125
54.06	23.597
54.28	6.244
54.5	0.899
54.72	4.892
54.94	3.849
55.16	1.581
55.38	2.323
55.6	9.032
55.82	12.847
56.04	16.142
56.26	29.952
56.48	4.82
56.7	17.674
56.92	15.081
57.14	14.583
57.36	21.63
57.58	23.661
57.8	14.629
58.02	13.808
58.24	12.635
58.46	31.66
58.68	8.574
58.9	5.473
59.12	5.213
59.34	5.015
59.56	5.232
59.78	17.603
60	14.108
60.22	7.141
60.44	17.948
60.66	14.677
60.88	9.22
61.1	13.119
61.32	12.166
61.54	21.648
61.76	13.401
61.98	5.016
62.2	4.608
62.42	4.314
62.64	13.479
62.86	1.704
63.08	16.018
63.3	9.082
63.52	14.938
63.74	9.995
63.96	18.296
64.18	13.382
64.4	20.706
64.62	17.538
64.84	3.444
65.06	11.213
65.28	2.302
65.5	4.85
65.72	4.793
65.94	5.948
66.16	8.014
66.38	9.236
66.6	12.108
66.82	14.735
67.04	8.824
67.26	23.128
67.48	11.217
67.7	6.527
67.92	0.508
68.14	22.605
68.36	12.486
68.58	5.857
68.8	27.894
69.02	14.466
69.24	4.468
69.46	7.385
69.68	5.182
69.9	15.269
70.12	9.509
70.34	17.496
70.56	22.324
70.78	8.099
71	6.232
71.22	8.072
71.44	16.421
71.66	18.432
71.88	4.654
72.1	5.496
72.32	4.39
72.54	5.417
72.76	0.554
72.98	6.889
73.2	7.205
73.42	9.904
73.64	18.323
73.86	9.525
74.08	0.398
74.3	23.318
74.52	15.28
74.74	14.155
74.96	11.471
75.18	15.366
75.4	3.333
75.62	9.898
75.84	8.946
76.06	3.548
76.28	5.963
76.5	7.902
76.72	17.651
76.94	8.946
77.16	14.78
77.38	3.585
77.6	5.765
77.82	17.667
78.04	26.526
78.26	22.224
78.48	14.229
78.7	1.638
78.92	17.484
79.14	16.511
79.36	5.305
79.58	14.21
79.8	19.997
80.02	3.188
80.24	16.837
80.46	15.859
80.68	13.995
80.9	2.88
81.12	9.93
81.34	8.467
81.56	8.48
81.78	2.389
82	20.516
82.22	10.743
82.44	11.083
82.66	6.038
82.88	16.099
83.1	6.427
83.32	15.827
83.54	12.975
83.76	14.167
83.98	7.045
84.2	5.84
84.42	10.608
84.64	17.75
84.86	7.275
85.08	25.903
85.3	10.671
85.52	11.332
85.74	0.74
85.96	3.775
86.18	20.998
86.4	10.103
86.62	18.472
86.84	17.666
87.06	12.293
87.28	6.788
87.5	13.888
87.72	2.899
87.94	7.116
88.16	8.249
88.38	11.266
88.6	24.389
88.82	7.283
89.04	5.158
89.26	12.765
89.48	12.045
89.7	2.134
89.92	21.281
