Measurement: Powder, Xray Data XY Processed
Mineral: Helvine
Rruff sample: R060059
Ideal chemistry: Mn^2+^_4_(BeSiO_4_)_3_S^2-^
Locality: Schwarzenberg, Saxony, Germany
Source: University of Arizona Mineral Museum
Description: Yellow-tan colored tetrahedra
Diffraction sample description: Powder
Measured chemistry: (Mn^2+^_2.93_Fe^2+^_0.48_Zn_0.35_Ca_0.15_Fe^3+^_0.09_)_Σ=4_Be_3.00_((Si_0.97_Al_0.03_)_Σ=1_O_4_)_3_S_1.00_; BeO assumed by stoichiometry
Cell parameters: a: 8.2774(2) b: 8.2774(2) c: 8.2774(2) alpha: 90 beta: 90 gamma: 90 volume: 567.14(4) crystal system: cubic
x	intensity
5	0
5.22	13.046
5.44	18.658
5.66	7.478
5.88	24.945
6.1	24.206
6.32	29.235
6.54	12.72
6.76	11.124
6.98	6.152
7.2	2.719
7.42	0.624
7.64	1.555
7.86	6.166
8.08	18.16
8.3	0.712
8.52	1.938
8.74	21.445
8.96	10.762
9.18	16.1
9.4	17.841
9.62	14.91
9.84	4.781
10.06	3.609
10.28	20.598
10.5	14.117
10.72	14.273
10.94	8.746
11.16	0.57
11.38	14.824
11.6	20.047
11.82	18.485
12.04	14.577
12.26	18.698
12.48	19.78
12.7	9.014
12.92	14.946
13.14	9.999
13.36	15.36
13.58	14.889
13.8	18.466
14.02	7.259
14.24	7.053
14.46	23.531
14.68	14.15
14.9	9.471
15.12	20.495
15.34	22.614
15.56	12.413
15.78	4.145
16	15.91
16.22	9.673
16.44	0.749
16.66	6.646
16.88	10.135
17.1	7.241
17.32	16.039
17.54	22.977
17.76	6.613
17.98	5.504
18.2	1.735
18.42	13.287
18.64	6.978
18.86	0.44
19.08	6.477
19.3	13.994
19.52	8.895
19.74	5.151
19.96	2.68
20.18	13.963
20.4	19.945
20.62	21.021
20.84	16.403
21.06	15.771
21.28	11.205
21.5	10.749
21.72	7.401
21.94	13.418
22.16	9.305
22.38	25.339
22.6	23.635
22.82	11.399
23.04	17.156
23.26	0.327
23.48	18.03
23.7	12.134
23.92	10.192
24.14	58.824
24.36	8.535
24.58	6.712
24.8	12.947
25.02	6.162
25.24	7.786
25.46	0.413
25.68	6.006
25.9	11.606
26.12	17.964
26.34	70.022
26.56	121.887
26.78	13.438
27	16.913
27.22	16.841
27.44	5.18
27.66	11.941
27.88	5.776
28.1	3.554
28.32	9.344
28.54	0.429
28.76	9.212
28.98	14.694
29.2	4.553
29.42	10.698
29.64	18.035
29.86	19.845
30.08	0.535
30.3	5.562
30.52	18.377
30.74	18.216
30.96	18.596
31.18	4.814
31.4	14.734
31.62	8.509
31.84	2.645
32.06	5.55
32.28	10.569
32.5	16.099
32.72	30.186
32.94	17.904
33.16	0.807
33.38	2.417
33.6	14.482
33.82	11.638
34.04	10.939
34.26	90.755
34.48	26.052
34.7	11.046
34.92	20.583
35.14	16.326
35.36	10.008
35.58	8.184
35.8	6.732
36.02	11.716
36.24	20.633
36.46	17.356
36.68	6.161
36.9	9.507
37.12	15.441
37.34	12.654
37.56	0.324
37.78	36.576
38	2.083
38.22	1.738
38.44	0.45
38.66	18.246
38.88	6.395
39.1	14.615
39.32	25.833
39.54	11.026
39.76	12.869
39.98	12.85
40.2	8.95
40.42	14.437
40.64	1.511
40.86	54.484
41.08	6.576
41.3	4.29
41.52	8.336
41.74	2.124
41.96	13.347
42.18	2.603
42.4	6.779
42.62	21.905
42.84	7.829
43.06	13.654
43.28	10.418
43.5	2.56
43.72	21.679
43.94	16.552
44.16	13.308
44.38	28.549
44.6	20.739
44.82	5.796
45.04	17.582
45.26	13.08
45.48	7.073
45.7	27.101
45.92	5.697
46.14	14.174
46.36	21.162
46.58	166.801
46.8	38.368
47.02	10.504
47.24	12.128
47.46	10.204
47.68	9.742
47.9	1.083
48.12	10.164
48.34	16.263
48.56	7.747
48.78	3.761
49	4.75
49.22	17.004
49.44	7.394
49.66	11.59
49.88	0.159
50.1	15.544
50.32	11.083
50.54	19.464
50.76	17.748
50.98	3.341
51.2	20.469
51.42	6.533
51.64	1.733
51.86	9.99
52.08	7.657
52.3	0.333
52.52	1.626
52.74	6.198
52.96	9.755
53.18	13.274
53.4	1.863
53.62	13.945
53.84	8.942
54.06	15.31
54.28	16.5
54.5	17.449
54.72	22.048
54.94	22.432
55.16	8.374
55.38	3.403
55.6	10.41
55.82	17.423
56.04	7.57
56.26	13.528
56.48	11.535
56.7	7.256
56.92	9.34
57.14	13.885
57.36	4.607
57.58	3.559
57.8	10.594
58.02	4.626
58.24	16.94
58.46	13.154
58.68	2.247
58.9	0.599
59.12	8.439
59.34	13.253
59.56	2.925
59.78	7.152
60	2.037
60.22	7.081
60.44	2.127
60.66	6.896
60.88	13.216
61.1	5.218
61.32	17.346
61.54	16.209
61.76	17.487
61.98	9.565
62.2	14.104
62.42	9.054
62.64	21.742
62.86	11.656
63.08	20.716
63.3	8.756
63.52	30.559
63.74	24.275
63.96	0.49
64.18	8.445
64.4	6.573
64.62	1.45
64.84	18.536
65.06	15.516
65.28	16.552
65.5	0.586
65.72	10.451
65.94	25.381
66.16	6.587
66.38	0.648
66.6	18.527
66.82	1.019
67.04	6.957
67.26	1.195
67.48	21.158
67.7	18.911
67.92	13.962
68.14	35.255
68.36	10.262
68.58	29.909
68.8	4.44
69.02	13.04
69.24	20.035
69.46	6.912
69.68	0.093
69.9	12.984
70.12	35.137
70.34	2.51
70.56	6.822
70.78	4.265
71	27.387
71.22	16.91
71.44	1.401
71.66	3.481
71.88	11.234
72.1	18.685
72.32	20.947
72.54	7.295
72.76	3.181
72.98	0.361
73.2	17.033
73.42	6.696
73.64	16.272
73.86	11.339
74.08	26.117
74.3	16.845
74.52	14.167
74.74	23.477
74.96	7.753
75.18	0.777
75.4	10.887
75.62	1.167
75.84	9.553
76.06	14.692
76.28	14.368
76.5	7.051
76.72	12.903
76.94	5.961
77.16	18.706
77.38	4.961
77.6	2.002
77.82	10.018
78.04	7.307
78.26	3.485
78.48	1.075
78.7	15.173
78.92	15.016
79.14	16.543
79.36	3.228
79.58	14.155
79.8	10.031
80.02	13.905
80.24	10.69
80.46	23.723
80.68	12.236
80.9	8.57
81.12	11.412
81.34	3.074
81.56	2.008
81.78	10.189
82	3.38
82.22	38.127
82.44	7.608
82.66	7.829
82.88	14.818
83.1	18.799
83.32	8.125
83.54	12.91
83.76	10.917
83.98	6.544
84.2	15.353
84.42	19.796
84.64	18.163
84.86	14.007
85.08	14.605
85.3	8.849
85.52	18.676
85.74	9.168
85.96	10.685
86.18	15.13
86.4	21.539
86.62	14.509
86.84	15.684
87.06	9.452
87.28	16.67
87.5	25.198
87.72	12.387
87.94	18.584
88.16	4.041
88.38	19.493
88.6	11.02
88.82	20.661
89.04	3.854
89.26	6.202
89.48	9.199
89.7	1.126
89.92	15.269
