Measurement: Powder, Xray Data XY Processed
Mineral: Hematite
Rruff sample: R060190
Ideal chemistry: Fe^3+^_2_O_3_
Locality: Florence mine, Egremont, Cumbria, England
Source: Lloyd Twaites
Description: Red tinged, steel-gray fragment of a botryoidal mass
Diffraction sample description: Powder
Measured chemistry: Fe_2.00_O_3_
Cell parameters: a: 5.0353(8) b: 5.0353(8) c: 13.744(5) alpha: 90 beta: 90 gamma: 120 volume: 301.8(0) crystal system: hexagonal
x	intensity
5	0
5.22	17.089
5.44	10.771
5.66	16.296
5.88	4.643
6.1	13.459
6.32	15.983
6.54	7.329
6.76	14.118
6.98	19.376
7.2	10.921
7.42	4.23
7.64	4.155
7.86	13.144
8.08	5.989
8.3	9.417
8.52	4.382
8.74	6.874
8.96	9.288
9.18	4.687
9.4	11.159
9.62	13.206
9.84	30.373
10.06	2.363
10.28	23.421
10.5	21.397
10.72	21.136
10.94	24.276
11.16	18.234
11.38	8.169
11.6	7.989
11.82	11.954
12.04	8.332
12.26	6.852
12.48	17.173
12.7	1.638
12.92	13.399
13.14	4.102
13.36	23.782
13.58	10.437
13.8	2.932
14.02	15.639
14.24	10.507
14.46	17.423
14.68	3.558
14.9	9.508
15.12	31.247
15.34	6.82
15.56	26.205
15.78	6.878
16	13.959
16.22	18.161
16.44	3.293
16.66	8.06
16.88	2.849
17.1	25.033
17.32	28.402
17.54	4.49
17.76	10.778
17.98	22.09
18.2	12.026
18.42	11.4
18.64	35.449
18.86	12.775
19.08	12.063
19.3	33.393
19.52	4.969
19.74	14.879
19.96	23.777
20.18	12.674
20.4	12.992
20.62	27.31
20.84	9.445
21.06	6.968
21.28	26.539
21.5	13.434
21.72	3.543
21.94	11.15
22.16	6.905
22.38	2.341
22.6	19.942
22.82	31.851
23.04	9.699
23.26	5.622
23.48	9.767
23.7	1.438
23.92	8.865
24.14	6.785
24.36	19.681
24.58	23.904
24.8	16.974
25.02	31.999
25.24	21.34
25.46	17.239
25.68	34.485
25.9	21.44
26.12	15.583
26.34	24.459
26.56	26.458
26.78	15.964
27	8.661
27.22	10.793
27.44	12.597
27.66	26.117
27.88	26.731
28.1	8.468
28.32	13.791
28.54	0.24
28.76	13.933
28.98	10.16
29.2	10.064
29.42	5.464
29.64	10.783
29.86	9.662
30.08	23.608
30.3	19.862
30.52	28.244
30.74	39.031
30.96	25.995
31.18	13.518
31.4	12.685
31.62	7.857
31.84	21.253
32.06	36.346
32.28	3.445
32.5	3.969
32.72	13.184
32.94	7.865
33.16	52.823
33.38	44.16
33.6	22.383
33.82	0.091
34.04	14.772
34.26	46.235
34.48	27.313
34.7	0.389
34.92	0.261
35.14	39.774
35.36	22.622
35.58	15.723
35.8	38.952
36.02	21.906
36.24	19.054
36.46	19.747
36.68	16.433
36.9	32.484
37.12	23.26
37.34	14.686
37.56	13.13
37.78	11.52
38	13.95
38.22	20.394
38.44	25.636
38.66	20.275
38.88	2.485
39.1	8.984
39.32	19.739
39.54	23.567
39.76	12.467
39.98	27.526
40.2	12.526
40.42	25.48
40.64	16.405
40.86	29.449
41.08	16.842
41.3	1.428
41.52	18.998
41.74	33.918
41.96	14.821
42.18	10.801
42.4	3.595
42.62	20.236
42.84	11.238
43.06	29.287
43.28	17.189
43.5	15.258
43.72	4.574
43.94	4.448
44.16	19.254
44.38	20.016
44.6	13.518
44.82	1.531
45.04	25.982
45.26	19.115
45.48	3.158
45.7	15.034
45.92	12.8
46.14	17.418
46.36	15.457
46.58	6.383
46.8	19.583
47.02	13.038
47.24	18.67
47.46	14.619
47.68	10.743
47.9	21.752
48.12	3.461
48.34	36.664
48.56	14.13
48.78	13.165
49	22.308
49.22	6.082
49.44	26.12
49.66	20.009
49.88	22.445
50.1	16.759
50.32	30.56
50.54	8.095
50.76	30.642
50.98	16.278
51.2	1.633
51.42	25.211
51.64	14.925
51.86	28.695
52.08	18.487
52.3	6.731
52.52	36.205
52.74	26.889
52.96	22.029
53.18	3.147
53.4	2.137
53.62	2.345
53.84	6.076
54.06	48.891
54.28	27.43
54.5	27.493
54.72	7.469
54.94	15.09
55.16	18.224
55.38	17.341
55.6	27.669
55.82	9.645
56.04	17.1
56.26	25.508
56.48	45.429
56.7	30.449
56.92	39.471
57.14	33.126
57.36	47.234
57.58	35.511
57.8	26.44
58.02	18.375
58.24	14.805
58.46	10.137
58.68	4.009
58.9	4.046
59.12	13.913
59.34	10.249
59.56	17.675
59.78	7.162
60	29.869
60.22	7.775
60.44	22.21
60.66	29.922
60.88	1.818
61.1	26.994
61.32	10.571
61.54	0.772
61.76	22.102
61.98	11.798
62.2	21.77
62.42	27.053
62.64	27.259
62.86	6.188
63.08	12.736
63.3	23.998
63.52	20.222
63.74	6.787
63.96	16.994
64.18	31.434
64.4	15.884
64.62	0.283
64.84	15.437
65.06	28.07
65.28	4.676
65.5	24.731
65.72	26.427
65.94	20.889
66.16	31.163
66.38	10.769
66.6	38.95
66.82	19.069
67.04	11.796
67.26	24.238
67.48	31.701
67.7	25.035
67.92	12.575
68.14	25.044
68.36	11.159
68.58	8.149
68.8	20.772
69.02	13.326
69.24	27.189
69.46	22.434
69.68	16.126
69.9	35.354
70.12	28.968
70.34	17.835
70.56	20.232
70.78	12.655
71	25.436
71.22	5.143
71.44	2.978
71.66	3.896
71.88	9.697
72.1	32.016
72.32	16.148
72.54	16.458
72.76	10.669
72.98	17.496
73.2	0.58
73.42	38.041
73.64	1.659
73.86	40.24
74.08	29.201
74.3	27.365
74.52	31.782
74.74	39.737
74.96	17.642
75.18	22.306
75.4	4.512
75.62	0.646
75.84	5.057
76.06	19.26
76.28	20.338
76.5	31.729
76.72	11.452
76.94	23.645
77.16	13.38
77.38	19.961
77.6	26.178
77.82	19.274
78.04	27.756
78.26	15.343
78.48	10.564
78.7	16.41
78.92	17.89
79.14	21.37
79.36	33.469
79.58	20.359
79.8	24.875
80.02	18.637
80.24	14.318
80.46	4.787
80.68	29.771
80.9	8.146
81.12	23.181
81.34	14.318
81.56	15.794
81.78	3.117
82	34.49
82.22	17.207
82.44	10.733
82.66	6.192
82.88	11.948
83.1	22.787
83.32	28.035
83.54	17.837
83.76	23.151
83.98	30.514
84.2	21.895
84.42	46.55
84.64	25.655
84.86	5.306
85.08	2.532
85.3	20.327
85.52	14.861
85.74	4.732
85.96	17.165
86.18	39.823
86.4	36.299
86.62	3.921
86.84	28.417
87.06	31.93
87.28	12.475
87.5	21.637
87.72	24.419
87.94	29.005
88.16	15.204
88.38	16.342
88.6	6.982
88.82	11.731
89.04	18.467
89.26	31.677
89.48	20.976
89.7	35.028
89.92	20.469
