Measurement: Powder, Xray Data XY Processed
Mineral: Hematite
Rruff sample: R050300
Ideal chemistry: Fe^3+^_2_O_3_
Locality: Argentina
Source: Eugene Schlepp
Description: Pseudomorph after magnetite
Diffraction sample description: Powder
Measured chemistry: Fe_2.00_O_3_
Cell parameters: a: 5.0367(9) b: 5.0367(9) c: 13.759(7) alpha: 90 beta: 90 gamma: 120 volume: 302.3(0) crystal system: hexagonal
x	intensity
5	0
5.22	38.8363
5.44	34.3161
5.66	5.76227
5.88	11.1452
6.1	14.6618
6.32	25.001
6.54	23.8967
6.76	1.08852
6.98	16.9075
7.2	13.475
7.42	52.525
7.64	18.1308
7.86	29.6161
8.08	27.34
8.3	17.7428
8.52	30.716
8.74	2.39078
8.96	8.81084
9.18	2.2686
9.4	2.46976
9.62	16.9041
9.84	13.7796
10.06	23.1199
10.28	19.2374
10.5	37.5131
10.72	1.53609
10.94	34.5356
11.16	23.288
11.38	28.1225
11.6	11.3069
11.82	26.5442
12.04	12.4968
12.26	49.1875
12.48	28.4735
12.7	23.8435
12.92	18.8093
13.14	35.7319
13.36	14.2508
13.58	22.7956
13.8	9.55661
14.02	9.43225
14.24	45.2453
14.46	27.1304
14.68	1.70839
14.9	3.39424
15.12	24.0115
15.34	12.3257
15.56	34.2152
15.78	36.7024
16	22.8769
16.22	17.8968
16.44	19.6903
16.66	4.70273
16.88	2.26596
17.1	25.1545
17.32	3.37042
17.54	8.21156
17.76	22.7541
17.98	20.0789
18.2	21.3558
18.42	15.2203
18.64	41.2931
18.86	36.8905
19.08	55.9344
19.3	10.7633
19.52	31.986
19.74	55.9641
19.96	18.8751
20.18	25.7138
20.4	24.6049
20.62	20.049
20.84	28.0091
21.06	17.8791
21.28	26.2976
21.5	16.0406
21.72	0.361969
21.94	8.64203
22.16	45.8811
22.38	28.076
22.6	16.1838
22.82	17.3997
23.04	26.1148
23.26	53.8105
23.48	14.6661
23.7	27.4023
23.92	31.2766
24.14	52.2453
24.36	14.1998
24.58	11.6763
24.8	21.2009
25.02	31.0772
25.24	38.5038
25.46	54.2243
25.68	6.00349
25.9	23.5931
26.12	31.8234
26.34	45.7488
26.56	31.1447
26.78	1.98447
27	51.763
27.22	49.7266
27.44	30.5785
27.66	33.3933
27.88	17.8631
28.1	35.5677
28.32	18.6667
28.54	19.0267
28.76	32.7107
28.98	4.59535
29.2	3.55038
29.42	27.3032
29.64	31.2946
29.86	39.2142
30.08	46.4781
30.3	32.1361
30.52	23.9066
30.74	34.0135
30.96	3.02159
31.18	21.2666
31.4	34.1056
31.62	57.6819
31.84	4.72932
32.06	1.50742
32.28	9.44701
32.5	32.1356
32.72	14.0623
32.94	36.9285
33.16	164.519
33.38	60.894
33.6	17.825
33.82	0.155609
34.04	27.8517
34.26	19.0645
34.48	24.2478
34.7	20.2281
34.92	16.2815
35.14	55.0774
35.36	42.4167
35.58	61.7523
35.8	102.755
36.02	26.9997
36.24	32.6748
36.46	10.172
36.68	20.4023
36.9	27.8477
37.12	24.2159
37.34	18.3243
37.56	26.2893
37.78	28.9892
38	7.35544
38.22	14.3889
38.44	45.0526
38.66	37.1611
38.88	17.7231
39.1	7.10335
39.32	48.7581
39.54	7.04572
39.76	13.4198
39.98	19.4383
40.2	5.07094
40.42	24.8773
40.64	26.3515
40.86	37.1411
41.08	43.5578
41.3	47.1254
41.52	28.9399
41.74	33.6572
41.96	11.9583
42.18	1.61758
42.4	5.01183
42.62	26.2033
42.84	26.0942
43.06	27.118
43.28	25.845
43.5	28.2877
43.72	29.153
43.94	19.2477
44.16	25.5699
44.38	19.77
44.6	14.9626
44.82	33.8493
45.04	58.1175
45.26	17.0226
45.48	30.5242
45.7	39.3162
45.92	32.0574
46.14	27.2515
46.36	3.29485
46.58	8.57106
46.8	3.36327
47.02	19.1704
47.24	30.0724
47.46	25.9507
47.68	24.4553
47.9	25.6641
48.12	19.9036
48.34	16.3028
48.56	20.2478
48.78	21.4553
49	17.9993
49.22	30.8025
49.44	36.6294
49.66	53.4711
49.88	17.1484
50.1	37.4948
50.32	18.4674
50.54	20.038
50.76	11.9262
50.98	68.8803
51.2	0.127335
51.42	16.8831
51.64	19.0833
51.86	44.9952
52.08	17.8557
52.3	34.0464
52.52	4.22964
52.74	33.0082
52.96	29.2026
53.18	4.07076
53.4	23.22
53.62	32.9526
53.84	22.943
54.06	54.6118
54.28	54.7234
54.5	36.6576
54.72	28.516
54.94	31.422
55.16	37.5727
55.38	17.2265
55.6	9.28297
55.82	12.1944
56.04	26.9866
56.26	54.0389
56.48	13.2921
56.7	37.6663
56.92	24.558
57.14	22.3717
57.36	3.27185
57.58	48.9503
57.8	59.0776
58.02	43.5622
58.24	24.0575
58.46	11.7378
58.68	16.1237
58.9	30.4628
59.12	39.7438
59.34	28.4076
59.56	37.5546
59.78	23.2105
60	5.10948
60.22	36.5834
60.44	36.9793
60.66	9.89401
60.88	38.7131
61.1	35.907
61.32	32.0375
61.54	25.7565
61.76	35.7189
61.98	22.832
62.2	3.767
62.42	74.4515
62.64	13.2786
62.86	35.1132
63.08	18.6745
63.3	3.67192
63.52	14.0942
63.74	13.558
63.96	36.226
64.18	27.6455
64.4	15.9401
64.62	18.9914
64.84	26.9188
65.06	9.9043
65.28	30.56
65.5	28.8474
65.72	27.1974
65.94	19.3344
66.16	8.28665
66.38	31.9571
66.6	13.4462
66.82	55.0665
67.04	42.0726
67.26	51.8276
67.48	30.0192
67.7	6.63147
67.92	26.9482
68.14	34.727
68.36	2.63162
68.58	49.0374
68.8	33.198
69.02	16.5167
69.24	27.5753
69.46	28.6814
69.68	28.0084
69.9	32.7354
70.12	27.2511
70.34	33.5116
70.56	10.1052
70.78	31.3428
71	27.0675
71.22	30.0874
71.44	10.2608
71.66	30.1819
71.88	34.7613
72.1	32.8173
72.32	33.4359
72.54	41.1544
72.76	27.6407
72.98	18.2243
73.2	22.0352
73.42	4.12305
73.64	20.7359
73.86	58.1021
74.08	15.1144
74.3	18.8517
74.52	50.1043
74.74	32.2799
74.96	39.1842
75.18	28.4164
75.4	45.4575
75.62	10.1322
75.84	25.3336
76.06	36.851
76.28	17.8959
76.5	25.1571
76.72	31.0677
76.94	20.2215
77.16	52.9965
77.38	24.7344
77.6	45.5608
77.82	20.3076
78.04	20.2352
78.26	33.9056
78.48	14.7165
78.7	2.74306
78.92	49.0761
79.14	46.3354
79.36	0.918625
79.58	8.17125
79.8	0.419586
80.02	10.7528
80.24	20.664
80.46	30.2767
80.68	33.4812
80.9	42.1524
81.12	34.8119
81.34	41.3252
81.56	25.835
81.78	21.8706
82	48.041
82.22	20.6819
82.44	12.0825
82.66	16.7625
82.88	15.7428
83.1	37.4608
83.32	19.0581
83.54	13.7993
83.76	1.3656
83.98	7.5981
84.2	31.1161
84.42	18.0685
84.64	16.4619
84.86	23.9094
85.08	28.5492
85.3	56.2544
85.52	26.7184
85.74	8.46657
85.96	8.95535
86.18	9.75238
86.4	38.5819
86.62	17.6709
86.84	15.1131
87.06	11.0599
87.28	18.7734
87.5	24.6797
87.72	21.5111
87.94	4.16406
88.16	23.2349
88.38	33.643
88.6	20.4756
88.82	36.3899
89.04	37.8933
89.26	27.2086
89.48	41.4531
89.7	51.7334
89.92	12.4969
