Measurement: Powder, Xray Data XY Processed
Mineral: Hematite
Rruff sample: R070240
Ideal chemistry: Fe^3+^_2_O_3_
Locality: Moshgai, Gobi Desert, Mongolia
Source: Michael Scott
Description: Black fine-grained replacement of massive but fractured magnetite
Diffraction sample description: Powder
Measured chemistry: (Fe^3+^_1.97_Al_0.02_Mn^3+^_0.01_)_Î£=2_O_3_
Cell parameters: a: 5.0322(3) b: 5.0322(3) c: 13.730(3) alpha: 90 beta: 90 gamma: 120 volume: 301.12(5) crystal system: hexagonal
x	intensity
5	0
5.22	12.7832
5.44	11.3575
5.66	27.4227
5.88	11.2911
6.1	9.47559
6.32	15.7717
6.54	12.8419
6.76	7.88844
6.98	15.2685
7.2	22.7336
7.42	7.19746
7.64	9.74044
7.86	30.4379
8.08	15.9104
8.3	15.6639
8.52	32.1245
8.74	36.0364
8.96	13.9966
9.18	19.5346
9.4	17.1896
9.62	9.82103
9.84	27.9047
10.06	23.7366
10.28	23.7016
10.5	44.7983
10.72	14.8448
10.94	38.6071
11.16	7.49217
11.38	40.445
11.6	21.1191
11.82	8.99687
12.04	27.5608
12.26	29.978
12.48	31.4187
12.7	29.3325
12.92	23.0571
13.14	5.94968
13.36	12.6765
13.58	21.8495
13.8	16.9275
14.02	18.0463
14.24	5.54358
14.46	20.755
14.68	6.90527
14.9	31.3558
15.12	45.3286
15.34	1.53954
15.56	36.3316
15.78	4.69145
16	11.8263
16.22	32.7464
16.44	19.3693
16.66	7.7568
16.88	9.00285
17.1	16.7455
17.32	22.1957
17.54	27.4531
17.76	10.3171
17.98	0.044815
18.2	22.5297
18.42	9.72109
18.64	6.3205
18.86	12.7233
19.08	4.7384
19.3	25.9297
19.52	25.229
19.74	10.1824
19.96	20.1059
20.18	23.5336
20.4	5.27281
20.62	12.6861
20.84	21.7072
21.06	17.0194
21.28	11.9154
21.5	4.20503
21.72	54.1748
21.94	0.963806
22.16	16.506
22.38	45.3192
22.6	29.8702
22.82	50.0444
23.04	6.36478
23.26	14.4593
23.48	29.8166
23.7	52.1092
23.92	34.1306
24.14	59.4214
24.36	11.1341
24.58	22.6284
24.8	25.1119
25.02	18.3046
25.24	30.3254
25.46	15.3595
25.68	45.8029
25.9	28.5475
26.12	40.8374
26.34	19.9856
26.56	24.6915
26.78	41.2393
27	11.7955
27.22	15.4427
27.44	24.8383
27.66	31.169
27.88	35.5062
28.1	18.3007
28.32	21.3225
28.54	16.5552
28.76	20.0362
28.98	15.6723
29.2	19.1469
29.42	26.5597
29.64	41.1062
29.86	2.75401
30.08	3.11943
30.3	10.6162
30.52	1.54364
30.74	21.3306
30.96	46.6645
31.18	1.67256
31.4	6.80026
31.62	17.4319
31.84	36.2602
32.06	20.8208
32.28	24.8975
32.5	6.83916
32.72	40.0357
32.94	6.71439
33.16	141.129
33.38	37.4281
33.6	46.3733
33.82	7.54157
34.04	6.69595
34.26	6.00618
34.48	13.2111
34.7	16.2926
34.92	13.1209
35.14	23.0569
35.36	39.8017
35.58	53.0289
35.8	57.8144
36.02	8.23416
36.24	14.55
36.46	18.1722
36.68	0.779953
36.9	19.1945
37.12	12.675
37.34	32.7609
37.56	29.3433
37.78	21.0563
38	29.7558
38.22	9.63762
38.44	24.0835
38.66	19.5244
38.88	29.9565
39.1	12.1529
39.32	5.51573
39.54	7.65086
39.76	5.86275
39.98	18.8235
40.2	10.4472
40.42	38.5044
40.64	20.9353
40.86	20.0153
41.08	34.6881
41.3	25.5091
41.52	47.3575
41.74	22.7956
41.96	35.4625
42.18	26.0867
42.4	50.1407
42.62	23.967
42.84	20.4311
43.06	16.5309
43.28	28.5393
43.5	1.0517
43.72	1.02441
43.94	0.137161
44.16	19.7283
44.38	7.19469
44.6	23.2597
44.82	20.4299
45.04	22.7273
45.26	31.4654
45.48	21.2893
45.7	34.5116
45.92	15.6171
46.14	52.8273
46.36	29.2723
46.58	20.4142
46.8	2.4176
47.02	3.2514
47.24	9.63377
47.46	31.5746
47.68	30.9769
47.9	49.1867
48.12	5.50612
48.34	1.98534
48.56	22.3121
48.78	36.2232
49	3.20978
49.22	35.8103
49.44	42.7873
49.66	3.80843
49.88	22.6424
50.1	32.5447
50.32	56.1363
50.54	43.2471
50.76	18.5004
50.98	28.9186
51.2	29.4513
51.42	7.35582
51.64	39.0248
51.86	27.1354
52.08	21.6536
52.3	15.1685
52.52	30.7194
52.74	19.7604
52.96	45.0523
53.18	47.3859
53.4	17.6375
53.62	14.6137
53.84	37.3096
54.06	68.2449
54.28	39.9452
54.5	45.9319
54.72	26.2492
54.94	3.9104
55.16	25.1483
55.38	23.2852
55.6	32.8469
55.82	20.0911
56.04	39.2387
56.26	16.6917
56.48	22.5566
56.7	17.7632
56.92	18.1698
57.14	25.7113
57.36	29.5422
57.58	6.26894
57.8	49.288
58.02	14.1315
58.24	57.4135
58.46	11.5978
58.68	48.8493
58.9	29.1328
59.12	23.575
59.34	11.2511
59.56	6.63785
59.78	19.7295
60	74.2952
60.22	3.90997
60.44	7.4454
60.66	31.604
60.88	15.5103
61.1	32.861
61.32	39.1875
61.54	16.2172
61.76	16.5387
61.98	17.4816
62.2	34.7847
62.42	52.5792
62.64	39.7588
62.86	2.5645
63.08	0.249405
63.3	23.1229
63.52	24.1149
63.74	11.502
63.96	53.8601
64.18	44.6971
64.4	23.8173
64.62	19.3188
64.84	29.7321
65.06	7.22708
65.28	11.4368
65.5	36.5987
65.72	2.92093
65.94	23.9816
66.16	7.29323
66.38	8.41304
66.6	23.5143
66.82	1.08266
67.04	5.47296
67.26	50.3777
67.48	17.1349
67.7	31.9394
67.92	17.1379
68.14	23.0223
68.36	8.05376
68.58	33.9547
68.8	7.24182
69.02	29.9429
69.24	25.5231
69.46	26.8408
69.68	20.6152
69.9	17.8916
70.12	24.008
70.34	27.1941
70.56	9.26625
70.78	27.4787
71	12.7237
71.22	7.92194
71.44	26.2027
71.66	16.4567
71.88	22.7813
72.1	15.2697
72.32	19.1559
72.54	27.0633
72.76	17.4822
72.98	22.4529
73.2	31.5567
73.42	24.673
73.64	15.7861
73.86	15.397
74.08	24.6021
74.3	12.443
74.52	49.1925
74.74	55.4191
74.96	0.881668
75.18	22.1989
75.4	47.6353
75.62	46.1899
75.84	32.1998
76.06	42.9542
76.28	31.3431
76.5	49.2828
76.72	31.0617
76.94	42.0969
77.16	28.3638
77.38	44.9273
77.6	58.4636
77.82	29.0358
78.04	17.0906
78.26	12.4139
78.48	9.58592
78.7	27.6258
78.92	20.4665
79.14	31.9661
79.36	22.8252
79.58	16.3819
79.8	28.9905
80.02	1.51402
80.24	39.8357
80.46	39.1516
80.68	39.179
80.9	13.5054
81.12	36.348
81.34	23.6557
81.56	26.9438
81.78	49.5339
82	22.6151
82.22	37.4575
82.44	25.7418
82.66	57.3055
82.88	35.7875
83.1	43.9853
83.32	30.2455
83.54	15.4903
83.76	8.40065
83.98	28.9033
84.2	17.9582
84.42	64.0571
84.64	24.7313
84.86	11.6434
85.08	28.1368
85.3	22.4541
85.52	49.3681
85.74	7.44528
85.96	31.7979
86.18	38.3089
86.4	11.3944
86.62	8.07555
86.84	3.93823
87.06	19.8284
87.28	43.4212
87.5	29.7783
87.72	23.7875
87.94	66.9724
88.16	4.82318
88.38	37.4862
88.6	24.9497
88.82	36.5941
89.04	33.4667
89.26	17.1261
89.48	45.6497
89.7	1.02379
89.92	28.3991
