Measurement: Powder, Xray Data XY Processed
Mineral: Henritermierite
Rruff sample: R060253
Ideal chemistry: Ca_3_Mn^3+^_2_(SiO_4_)_2_(OH)_4_
Locality: N'Chwaning mine, Kuruman, Kakahari mining area, Cape Province, South Africa
Source: William W. Pinch
Description: Reddish-brown granular coating on darker andradite
Diffraction sample description: Single crystal, powder profile is calculated
Measured chemistry: Ca_3.00_(Mn^3+^_1.97_Al_0.03_)_Î£=2_(Si_1.00_O_4_)_2_(OH)_4_
Cell parameters: a: 12.487(2) b: 12.487(2) c: 11.902(1) alpha: 90 beta: 90 gamma: 90 volume: 1855.8(3) crystal system: tetragonal
x	intensity
5	0
5.22	0
5.44	0
5.66	0
5.88	0
6.1	0
6.32	0
6.54	0
6.76	0
6.98	0
7.2	0
7.42	0
7.64	0
7.86	0
8.08	0
8.3	0
8.52	0
8.74	0
8.96	0
9.18	0
9.4	0
9.62	0
9.84	0
10.06	0
10.28	0
10.5	0
10.72	0
10.94	0
11.16	0
11.38	0
11.6	0
11.82	0
12.04	0
12.26	0
12.48	0
12.7	0
12.92	0
13.14	0
13.36	0
13.58	0
13.8	0
14.02	0
14.24	6.223
14.46	0
14.68	0
14.9	0
15.12	0
15.34	0
15.56	0
15.78	0
16	0
16.22	0
16.44	0
16.66	0
16.88	0
17.1	0
17.32	0
17.54	0.151
17.76	0
17.98	21.639
18.2	0
18.42	0
18.64	0
18.86	0
19.08	0
19.3	0
19.52	0
19.74	0
19.96	0.001
20.18	10.465
20.4	0
20.62	32.274
20.84	0
21.06	0
21.28	0
21.5	0
21.72	0
21.94	0
22.16	0
22.38	0
22.6	0
22.82	0
23.04	0
23.26	0
23.48	0
23.7	0
23.92	0
24.14	0
24.36	0
24.58	0
24.8	0
25.02	0
25.24	0
25.46	0
25.68	0
25.9	0
26.12	0
26.34	0
26.56	0
26.78	1.003
27	1.554
27.22	0.271
27.44	0
27.66	0.012
27.88	0
28.1	0
28.32	0
28.54	44.989
28.76	0.008
28.98	0
29.2	0
29.42	0
29.64	0
29.86	0.009
30.08	27.718
30.3	0.001
30.52	1.042
30.74	0
30.96	0
31.18	0
31.4	0
31.62	0
31.84	0
32.06	21.094
32.28	7.068
32.5	3.506
32.72	0
32.94	0
33.16	0
33.38	19.216
33.6	0
33.82	0.001
34.04	1.376
34.26	0.818
34.48	0.807
34.7	0
34.92	0
35.14	0
35.36	0.122
35.58	45.634
35.8	0
36.02	0
36.24	0.01
36.46	12.287
36.68	4.07
36.9	0.609
37.12	0
37.34	2.63
37.56	0
37.78	4.613
38	0.056
38.22	0
38.44	0
38.66	0
38.88	0
39.1	0
39.32	0
39.54	9.691
39.76	21.082
39.98	0.016
40.2	0
40.42	0
40.64	0
40.86	0.376
41.08	0.217
41.3	3.649
41.52	0
41.74	0
41.96	0.24
42.18	0
42.4	0
42.62	0.001
42.84	0.316
43.06	0
43.28	0
43.5	0.012
43.72	0
43.94	0
44.16	0
44.38	0.058
44.6	0.085
44.82	3.952
45.04	7.22
45.26	9.839
45.48	0.015
45.7	0
45.92	19.584
46.14	1.691
46.36	0.86
46.58	0
46.8	0.562
47.02	4.004
47.24	0.328
47.46	0
47.68	0
47.9	0
48.12	2.976
48.34	0
48.56	1.83
48.78	0.197
49	0
49.22	0
49.44	0.025
49.66	0.14
49.88	0.001
50.1	0.011
50.32	0
50.54	0
50.76	0
50.98	0
51.2	0
51.42	0.73
51.64	3.047
51.86	0
52.08	0.002
52.3	0.805
52.52	0.004
52.74	1.045
52.96	6.85
53.18	0.023
53.4	0
53.62	1.774
53.84	5.668
54.06	0.621
54.28	1.235
54.5	0.01
54.72	10.301
54.94	6.307
55.16	33.374
55.38	12.093
55.6	0
55.82	37.442
56.04	3.084
56.26	0
56.48	0.445
56.7	0.115
56.92	15.411
57.14	0.083
57.36	0
57.58	0
57.8	0
58.02	0
58.24	0.093
58.46	0.063
58.68	0.022
58.9	0
59.12	11.368
59.34	2.874
59.56	0.005
59.78	0
60	0.532
60.22	2.356
60.44	0.124
60.66	0.029
60.88	0.092
61.1	0.244
61.32	0.198
61.54	0.083
61.76	0
61.98	0.617
62.2	0.041
62.42	0.608
62.64	0.01
62.86	0
63.08	0.211
63.3	5.333
63.52	2.225
63.74	0
63.96	0.007
64.18	0.548
64.4	0.045
64.62	0.031
64.84	0.435
65.06	0.231
65.28	0
65.5	0
65.72	0
65.94	0
66.16	1.264
66.38	1.374
66.6	0.383
66.82	0.056
67.04	1.187
67.26	0.248
67.48	0.016
67.7	10.155
67.92	5.605
68.14	0
68.36	1.169
68.58	0.257
68.8	0
69.02	7.808
69.24	3.978
69.46	0.008
69.68	0.232
69.9	2.508
70.12	2.423
70.34	0
70.56	0
70.78	0
71	0.034
71.22	0.007
71.44	6.969
71.66	3.348
71.88	0.527
72.1	0.156
72.32	9.506
72.54	6.033
72.76	3.131
72.98	1.592
73.2	0
73.42	0.015
73.64	0.515
73.86	0.818
74.08	0.285
74.3	0
74.52	0.377
74.74	0.194
74.96	0.026
75.18	0.157
75.4	0.075
75.62	0.026
75.84	0.011
76.06	0.09
76.28	0.114
76.5	0.054
76.72	0.02
76.94	0
77.16	0.08
77.38	0.032
77.6	0.001
77.82	0.007
78.04	0.091
78.26	0.024
78.48	0.003
78.7	0
78.92	0.949
79.14	0.694
79.36	0.026
79.58	0.616
79.8	0.387
80.02	0
80.24	0
80.46	0
80.68	0.216
80.9	0.135
81.12	0.066
81.34	0.008
81.56	0.001
81.78	0.048
82	0.057
82.22	0.82
82.44	0.758
82.66	0.174
82.88	0.015
83.1	0.048
83.32	0.46
83.54	0.696
83.76	0.091
83.98	3.882
84.2	2.316
84.42	0.044
84.64	0.006
84.86	1.986
85.08	1.868
85.3	0.292
85.52	1.071
85.74	3.999
85.96	3.156
86.18	0.128
86.4	0.243
86.62	0.143
86.84	0.029
87.06	0.004
87.28	0.014
87.5	0.044
87.72	0.219
87.94	0.838
88.16	0.014
88.38	0.07
88.6	0.211
88.82	1.126
89.04	0.018
89.26	0.646
89.48	0.763
89.7	1.241
89.92	0
