Measurement: Powder, Xray Data XY Processed
Mineral: Heterosite
Rruff sample: R050165
Ideal chemistry: Fe^3+^PO_4_
Locality: White Elephant mine, Custer County, South Dakota, USA
Source: Marcus Origlieri
Description: Purple massive
Diffraction sample description: Single crystal, powder profile is calculated
Measured chemistry: (Fe^3+^_0.68_Mn^3+^_0.32_)P_1.00_O_4_
Cell parameters: a: 5.8299(6) b: 9.7658(8) c: 4.7824(3) alpha: 90 beta: 90 gamma: 90 volume: 272.28(6) crystal system: orthorhombic
x	intensity
5	0
5.22	0
5.44	0
5.66	0
5.88	0
6.1	0
6.32	0
6.54	0
6.76	0
6.98	0
7.2	0
7.42	0
7.64	0
7.86	0
8.08	0
8.3	0
8.52	0
8.74	0
8.96	0
9.18	0
9.4	0
9.62	0
9.84	0
10.06	0
10.28	0
10.5	0
10.72	0
10.94	0
11.16	0
11.38	0
11.6	0
11.82	0
12.04	0
12.26	0
12.48	0
12.7	0
12.92	0
13.14	0
13.36	0
13.58	0
13.8	0
14.02	0
14.24	0
14.46	0
14.68	0
14.9	0
15.12	0
15.34	0
15.56	0
15.78	0
16	0
16.22	0
16.44	0
16.66	0
16.88	0
17.1	0
17.32	0
17.54	0
17.76	0
17.98	0.003
18.2	9.152
18.42	0
18.64	0
18.86	0
19.08	0
19.3	0
19.52	0
19.74	0
19.96	0
20.18	0
20.4	0
20.62	1.865
20.84	0.404
21.06	0
21.28	0
21.5	0
21.72	0
21.94	0
22.16	0
22.38	0
22.6	0
22.82	0
23.04	0
23.26	0
23.48	0
23.7	18.806
23.92	0
24.14	1.182
24.36	0
24.58	0
24.8	0
25.02	0
25.24	0
25.46	0
25.68	0.719
25.9	4.582
26.12	12.428
26.34	0
26.56	0
26.78	0
27	0
27.22	0
27.44	0
27.66	0
27.88	0
28.1	0
28.32	0
28.54	0
28.76	0
28.98	0
29.2	0
29.42	0
29.64	0
29.86	0
30.08	0
30.3	31.129
30.52	0.019
30.74	31.511
30.96	0
31.18	0
31.4	0
31.62	0
31.84	0
32.06	0
32.28	0
32.5	0
32.72	0
32.94	0
33.16	0.467
33.38	1.094
33.6	0
33.82	0
34.04	0
34.26	0
34.48	0
34.7	0
34.92	0
35.14	0
35.36	0
35.58	0
35.8	1.75
36.02	0.005
36.24	0
36.46	0
36.68	26.413
36.9	2.207
37.12	0
37.34	12.99
37.56	0
37.78	0.001
38	0
38.22	0
38.44	0
38.66	0
38.88	7.907
39.1	0
39.32	0
39.54	0
39.76	0
39.98	3.748
40.2	0
40.42	0
40.64	6.828
40.86	0.036
41.08	0
41.3	0.002
41.52	5.219
41.74	0
41.96	5.304
42.18	1.708
42.4	0
42.62	0
42.84	0
43.06	0
43.28	0
43.5	0
43.72	0
43.94	0
44.16	0
44.38	2.622
44.6	0.005
44.82	0
45.04	4.596
45.26	0.004
45.48	0
45.7	0.002
45.92	2.519
46.14	0
46.36	0
46.58	0
46.8	0
47.02	0
47.24	0.457
47.46	0
47.68	0
47.9	0
48.12	0
48.34	0
48.56	1.321
48.78	0.002
49	0
49.22	0.031
49.44	4.479
49.66	0
49.88	1.749
50.1	0.002
50.32	4.305
50.54	0.075
50.76	0.418
50.98	0
51.2	0
51.42	0
51.64	4.726
51.86	0.006
52.08	0
52.3	0.002
52.52	0.114
52.74	0.001
52.96	16.367
53.18	2.294
53.4	0
53.62	7.501
53.84	0.312
54.06	0
54.28	9.04
54.5	0.186
54.72	0
54.94	0
55.16	0
55.38	0
55.6	0
55.82	0
56.04	6.828
56.26	2.333
56.48	0.902
56.7	0
56.92	0
57.14	0
57.36	0.476
57.58	0.003
57.8	0
58.02	0
58.24	0
58.46	3.123
58.68	16.899
58.9	5.239
59.12	0
59.34	0
59.56	0
59.78	0.023
60	0.155
60.22	0.175
60.44	0.185
60.66	0.001
60.88	1.5
61.1	3.818
61.32	1.722
61.54	0.006
61.76	0
61.98	0
62.2	0.019
62.42	0.199
62.64	0
62.86	0
63.08	1.044
63.3	0.048
63.52	13.829
63.74	4.255
63.96	3.857
64.18	0.076
64.4	0.025
64.62	0.004
64.84	0.009
65.06	0
65.28	0.089
65.5	10.246
65.72	3.943
65.94	0
66.16	0
66.38	0
66.6	0
66.82	0.014
67.04	0.091
67.26	0.001
67.48	0.217
67.7	0.183
67.92	1.406
68.14	0.141
68.36	0
68.58	0.753
68.8	0.31
69.02	0.02
69.24	0
69.46	0
69.68	0.043
69.9	0.157
70.12	3.269
70.34	0.654
70.56	0.109
70.78	0.075
71	0.12
71.22	0.172
71.44	0.001
71.66	0
71.88	1.007
72.1	0.608
72.32	0.013
72.54	0.001
72.76	2.177
72.98	0.687
73.2	0
73.42	0
73.64	0
73.86	1.587
74.08	0.795
74.3	0
74.52	0
74.74	0
74.96	0
75.18	0
75.4	0
75.62	0
75.84	0.004
76.06	1.966
76.28	0.881
76.5	0.254
76.72	0.108
76.94	0
77.16	0.167
77.38	0.129
77.6	0.071
77.82	0.005
78.04	0.007
78.26	1.5
78.48	0.991
78.7	0.208
78.92	0.835
79.14	1.198
79.36	1.377
79.58	0.475
79.8	0.011
80.02	0.19
80.24	0.101
80.46	1.341
80.68	1.274
80.9	0
81.12	0.257
81.34	0.102
81.56	0.052
81.78	0
82	0
82.22	0
82.44	0
82.66	0
82.88	0
83.1	0.792
83.32	0.935
83.54	0.071
83.76	0
83.98	0.349
84.2	0.098
84.42	0
84.64	0
84.86	0
85.08	0.056
85.3	1.057
85.52	0.586
85.74	0.241
85.96	0.12
86.18	0.04
86.4	1.424
86.62	0.246
86.84	0.017
87.06	0.016
87.28	0.009
87.5	0.26
87.72	0.634
87.94	0.24
88.16	0.351
88.38	0.101
88.6	0.301
88.82	0.49
89.04	1.795
89.26	6.911
89.48	1.272
89.7	0
89.92	0
