Measurement: Powder, Xray Data XY Processed
Mineral: Heterogenite
Rruff sample: R050382
Ideal chemistry: Co^3+^O(OH)
Locality: Goodsprings, Nevada, USA
Source: University of Arizona Mineral Museum
Description: Black massive, polytype 3R
Diffraction sample description: Powder
Measured chemistry: (Co^3+^_0.90_Ni_0.03_As^5+^_0.03_Zn_0.03_Al_0.01_)_Î£=1_O(OH)
Cell parameters: a: 2.8646(3) b: 2.8646(3) c: 13.358(6) alpha: 90. beta: 90. gamma: 120. volume: 94.93(4) crystal system: hexagonal
x	intensity
5	0
5.22	12.434
5.44	24.34
5.66	19.52
5.88	1.504
6.1	25.945
6.32	9.934
6.54	22.835
6.76	12.942
6.98	28.122
7.2	13.142
7.42	0.376
7.64	23.086
7.86	56.57
8.08	3.937
8.3	24.576
8.52	19.94
8.74	20.083
8.96	19.732
9.18	11.625
9.4	0.047
9.62	16.311
9.84	24.31
10.06	0.096
10.28	22.716
10.5	23.618
10.72	0.243
10.94	9.428
11.16	0.606
11.38	13.917
11.6	12.57
11.82	8.463
12.04	17.287
12.26	20.484
12.48	21.532
12.7	0.307
12.92	14.15
13.14	22.898
13.36	0.344
13.58	0.772
13.8	7.442
14.02	6.175
14.24	0.908
14.46	8.16
14.68	14.686
14.9	0.734
15.12	15.011
15.34	17.99
15.56	0.169
15.78	29.896
16	12.309
16.22	37.008
16.44	24.461
16.66	8.293
16.88	0.281
17.1	2.082
17.32	7.023
17.54	0.196
17.76	0.277
17.98	12.623
18.2	2.996
18.42	0.024
18.64	11.84
18.86	3.906
19.08	3.743
19.3	13.14
19.52	0.482
19.74	58.189
19.96	442.007
20.18	3.533
20.4	0.029
20.62	17.618
20.84	0.309
21.06	0.201
21.28	0.174
21.5	37.085
21.72	9.42
21.94	30.474
22.16	3.971
22.38	11.279
22.6	23.308
22.82	3.562
23.04	2.165
23.26	19.761
23.48	13.156
23.7	14.397
23.92	17.394
24.14	34.305
24.36	5.976
24.58	14.545
24.8	22.88
25.02	0.128
25.24	0.817
25.46	25.053
25.68	5.54
25.9	31.496
26.12	30.59
26.34	34.113
26.56	16.473
26.78	11.443
27	0.003
27.22	0.198
27.44	0.356
27.66	0.08
27.88	16.65
28.1	27.357
28.32	24.731
28.54	0.915
28.76	48.353
28.98	9.771
29.2	23.829
29.42	0.609
29.64	18.815
29.86	10.907
30.08	7.64
30.3	4.914
30.52	10.483
30.74	27.977
30.96	178.028
31.18	5.127
31.4	23.775
31.62	16.352
31.84	37.001
32.06	0.592
32.28	0.532
32.5	44.586
32.72	29.973
32.94	25.929
33.16	13.197
33.38	21.907
33.6	17.486
33.82	24.256
34.04	20.252
34.26	34.911
34.48	11.552
34.7	28.562
34.92	25.183
35.14	19.91
35.36	45.364
35.58	24.342
35.8	4.928
36.02	14.477
36.24	9.121
36.46	12.255
36.68	23.158
36.9	35.812
37.12	0.778
37.34	21.576
37.56	28.178
37.78	19.132
38	28.143
38.22	0.421
38.44	1.126
38.66	32.504
38.88	47.041
39.1	1.151
39.32	30.967
39.54	23.059
39.76	13.16
39.98	10.542
40.2	31.336
40.42	33.331
40.64	3.812
40.86	61.059
41.08	0.784
41.3	22.558
41.52	0.09
41.74	0.547
41.96	0.545
42.18	16.757
42.4	24.002
42.62	9.309
42.84	4.994
43.06	0.038
43.28	17.402
43.5	7.899
43.72	0.062
43.94	20.384
44.16	0.03
44.38	25.501
44.6	28.617
44.82	8.134
45.04	0.879
45.26	35.922
45.48	0.634
45.7	12.68
45.92	21.418
46.14	13.133
46.36	1.787
46.58	58.215
46.8	0.627
47.02	30.048
47.24	8.225
47.46	23.101
47.68	0.719
47.9	0.07
48.12	19.062
48.34	33.093
48.56	34.431
48.78	16.265
49	35.141
49.22	0.601
49.44	13.705
49.66	31.359
49.88	6.063
50.1	38.646
50.32	17.436
50.54	42.715
50.76	0.414
50.98	15.283
51.2	33.745
51.42	0.48
51.64	0.164
51.86	44.149
52.08	18.62
52.3	25.895
52.52	0.405
52.74	36.695
52.96	0.575
53.18	35.733
53.4	0.292
53.62	23.134
53.84	38.519
54.06	11.855
54.28	20.842
54.5	12.812
54.72	25.191
54.94	23.467
55.16	3.938
55.38	0.557
55.6	11.885
55.82	9.449
56.04	20.05
56.26	24.857
56.48	25.873
56.7	7.188
56.92	10.317
57.14	0.099
57.36	37.3
57.58	0.335
57.8	25.205
58.02	45.948
58.24	31.939
58.46	42.333
58.68	16.005
58.9	13.41
59.12	26.68
59.34	22.42
59.56	4.717
59.78	9.856
60	14.304
60.22	0.41
60.44	0.366
60.66	8.49
60.88	0.574
61.1	25.936
61.32	29.955
61.54	6.331
61.76	3.218
61.98	15.73
62.2	12.549
62.42	8.206
62.64	8.182
62.86	26.432
63.08	21.079
63.3	17.555
63.52	6.549
63.74	41.152
63.96	14.722
64.18	35.633
64.4	20.698
64.62	12.437
64.84	11.205
65.06	16.054
65.28	28.686
65.5	15.062
65.72	0.228
65.94	14.184
66.16	0.461
66.38	2.736
66.6	17.6
66.82	8.04
67.04	1.095
67.26	1.99
67.48	13.746
67.7	56.317
67.92	8.268
68.14	4.732
68.36	11.919
68.58	50.47
68.8	23.792
69.02	48.639
69.24	29.539
69.46	0.597
69.68	0.27
69.9	13.356
70.12	0.575
70.34	32.455
70.56	0.449
70.78	23.265
71	20.346
71.22	30.937
71.44	0.396
71.66	0.247
71.88	41.075
72.1	37.368
72.32	13.721
72.54	24.576
72.76	13.23
72.98	0.116
73.2	28.196
73.42	34.874
73.64	14.244
73.86	33.138
74.08	23.12
74.3	18.251
74.52	2.74
74.74	24.298
74.96	21.738
75.18	17.59
75.4	25.157
75.62	5.045
75.84	19.086
76.06	42.326
76.28	22.322
76.5	15.288
76.72	0.07
76.94	37.282
77.16	25.506
77.38	12.927
77.6	36.778
77.82	2.85
78.04	11.805
78.26	10.02
78.48	24.478
78.7	29.578
78.92	21.528
79.14	39.316
79.36	0.84
79.58	19.354
79.8	2.064
80.02	0.257
80.24	12.847
80.46	26.053
80.68	6.554
80.9	26.675
81.12	12.461
81.34	1.833
81.56	0.157
81.78	17.643
82	0.383
82.22	21.933
82.44	37.747
82.66	0.374
82.88	22.636
83.1	14.953
83.32	26.978
83.54	28.744
83.76	0.329
83.98	45.18
84.2	15.059
84.42	9.578
84.64	20.079
84.86	7.195
85.08	10.988
85.3	41.073
85.52	6.97
85.74	0.2
85.96	38.23
86.18	16.886
86.4	16.98
86.62	26.801
86.84	18.847
87.06	22.413
87.28	33.812
87.5	0.686
87.72	0.092
87.94	16.693
88.16	3.671
88.38	0.454
88.6	0.444
88.82	19.32
89.04	24.76
89.26	27.879
89.48	16.186
89.7	17.314
89.92	4.006
