Measurement: Powder, Xray Data XY Processed
Mineral: Heulandite-Ca
Rruff sample: R050017
Ideal chemistry: (Ca,Na,K)_5_(Si_27_Al_9_)O_72_26H_2_O
Locality: Poona, Maharashtra State, India
Source: Eugene Schlepp
Description: Single crystals
Diffraction sample description: Powder
Measured chemistry: (Ca_.70_Na_.22_K_.02_[box]_0.06_)_5_(Si_0.77_Al_0.23_)_36_O_72_Â·24H_2_O
Cell parameters: a: 17.681(3) b: 17.902(3) c: 7.4150(9) alpha: 90. beta: 116.44(2) gamma: 90. volume: 2101.4(6) crystal system: monoclinic
x	intensity
5	0
5.22	4.057
5.44	15.547
5.66	8.539
5.88	8.36
6.1	5.517
6.32	3.259
6.54	11.721
6.76	10.92
6.98	17.472
7.2	14.069
7.42	13.902
7.64	7.698
7.86	9.78
8.08	8.745
8.3	0.062
8.52	2.36
8.74	7.552
8.96	15.659
9.18	5.685
9.4	6.605
9.62	15.608
9.84	298.648
10.06	29.327
10.28	5.42
10.5	12.918
10.72	7.328
10.94	15.835
11.16	49.071
11.38	1.695
11.6	7.466
11.82	2.628
12.04	3.473
12.26	0.256
12.48	9.311
12.7	13.703
12.92	7.809
13.14	20.344
13.36	41.326
13.58	6.538
13.8	5.298
14.02	11.847
14.24	11.046
14.46	6.059
14.68	6.916
14.9	18.75
15.12	5.718
15.34	6.57
15.56	0.017
15.78	12.61
16	4.647
16.22	0.094
16.44	21.943
16.66	39.603
16.88	35.832
17.1	2.196
17.32	48.049
17.54	64.105
17.76	7.049
17.98	2.896
18.2	6.056
18.42	13.155
18.64	0.436
18.86	6.245
19.08	100.015
19.3	5.165
19.52	0.773
19.74	2.298
19.96	4.245
20.18	1.114
20.4	32.316
20.62	14.766
20.84	2.561
21.06	1.612
21.28	6.968
21.5	20.315
21.72	6.801
21.94	8.105
22.16	25.242
22.38	283.196
22.6	87.319
22.82	161.317
23.04	10.256
23.26	32.284
23.48	9.478
23.7	10.154
23.92	19.388
24.14	7.419
24.36	4.399
24.58	5.215
24.8	3.463
25.02	26.493
25.24	7.118
25.46	13.042
25.68	27.916
25.9	16.693
26.12	50.849
26.34	41.251
26.56	1.577
26.78	9.785
27	17.855
27.22	0.009
27.44	4.97
27.66	4.785
27.88	13.078
28.1	65.808
28.32	2.048
28.54	52.307
28.76	27.009
28.98	11.316
29.2	14.587
29.42	6.357
29.64	24.174
29.86	138.186
30.08	242.032
30.3	127.001
30.52	19.428
30.74	18.365
30.96	26.286
31.18	4.38
31.4	0.538
31.62	8.456
31.84	10.329
32.06	80.247
32.28	6.78
32.5	12.835
32.72	20.317
32.94	39.069
33.16	18.175
33.38	1.007
33.6	13.639
33.82	6.216
34.04	0.649
34.26	9.946
34.48	2.917
34.7	10.299
34.92	6.532
35.14	13.378
35.36	13.164
35.58	29.583
35.8	18.132
36.02	3.843
36.24	11.038
36.46	12.664
36.68	6.681
36.9	25.178
37.12	33.288
37.34	1.189
37.56	0.13
37.78	8.225
38	0.266
38.22	7.246
38.44	7.488
38.66	7.058
38.88	7.766
39.1	8.034
39.32	8.808
39.54	11.986
39.76	11.031
39.98	3.359
40.2	7.514
40.42	6.643
40.64	8.349
40.86	12.41
41.08	13.397
41.3	5.327
41.52	7.147
41.74	6.895
41.96	2.964
42.18	6.627
42.4	10.432
42.62	13.168
42.84	12.972
43.06	3.262
43.28	2.106
43.5	15.595
43.72	23.506
43.94	15.438
44.16	9.493
44.38	3.578
44.6	13.701
44.82	13.514
45.04	8.463
45.26	1.722
45.48	3.022
45.7	4.873
45.92	22.693
46.14	16.559
46.36	33.43
46.58	11.251
46.8	5.487
47.02	7.524
47.24	19.113
47.46	11.274
47.68	0.597
47.9	11.934
48.12	23.342
48.34	9.699
48.56	5.234
48.78	21.682
49	9.596
49.22	1.581
49.44	0.801
49.66	4.375
49.88	12.384
50.1	9.381
50.32	4.406
50.54	9.04
50.76	6.927
50.98	30.583
51.2	6.691
51.42	7.69
51.64	26.644
51.86	8.14
52.08	5.808
52.3	4.701
52.52	7.709
52.74	0.943
52.96	18.318
53.18	4.658
53.4	6.196
53.62	13.429
53.84	2.919
54.06	15.083
54.28	9.64
54.5	5.827
54.72	3.816
54.94	9.741
55.16	10.866
55.38	2.939
55.6	19.035
55.82	6.01
56.04	12.733
56.26	12.822
56.48	1.85
56.7	2.856
56.92	2.741
57.14	4.022
57.36	7.257
57.58	4.403
57.8	3.457
58.02	16.431
58.24	6.288
58.46	2.292
58.68	5.001
58.9	3.781
59.12	15.636
59.34	12.492
59.56	8.372
59.78	7.023
60	8.013
60.22	3.033
60.44	1.444
60.66	1.725
60.88	3.202
61.1	4.512
61.32	6.607
61.54	4.88
61.76	5.979
61.98	6.469
62.2	6.726
62.42	13.771
62.64	13.148
62.86	8.162
63.08	2.994
63.3	0.067
63.52	4.81
63.74	5.805
63.96	8.742
64.18	3.103
64.4	3.714
64.62	3.837
64.84	5.795
65.06	18.323
65.28	15.967
65.5	8.832
65.72	14.633
65.94	7.547
66.16	10.49
66.38	8.449
66.6	2.986
66.82	5.253
67.04	0.799
67.26	1.644
67.48	3.709
67.7	10.76
67.92	0.799
68.14	7.687
68.36	2.614
68.58	4.56
68.8	7.632
69.02	1.792
69.24	15.696
69.46	4.332
69.68	3.291
69.9	1.141
70.12	4.292
70.34	20.401
70.56	18.526
70.78	11.835
71	0.98
71.22	6.103
71.44	4.924
71.66	6.938
71.88	1.225
72.1	4.781
72.32	2.954
72.54	8.709
72.76	5.651
72.98	5.467
73.2	4.762
73.42	6.72
73.64	0.431
73.86	5.567
74.08	6.465
74.3	9.636
74.52	7.554
74.74	3.28
74.96	7.397
75.18	15.573
75.4	5.645
75.62	5.396
75.84	13.067
76.06	8.171
76.28	4.229
76.5	4.268
76.72	1.052
76.94	1.239
77.16	5.398
77.38	11.339
77.6	4.963
77.82	8.287
78.04	4.453
78.26	5.162
78.48	6.475
78.7	7.948
78.92	1.062
79.14	8.209
79.36	4.27
79.58	13.297
79.8	9.248
80.02	5.083
80.24	9.051
80.46	2.003
80.68	4.863
80.9	10.029
81.12	9.783
81.34	5.768
81.56	8.938
81.78	11.963
82	3.019
82.22	5.05
82.44	1.915
82.66	6.923
82.88	9.282
83.1	2.508
83.32	6.925
83.54	4.068
83.76	6.283
83.98	1.394
84.2	9.821
84.42	4.945
84.64	1.983
84.86	2.01
85.08	7.013
85.3	5.825
85.52	6.715
85.74	3.37
85.96	6.446
86.18	14.329
86.4	3.27
86.62	5.366
86.84	9.375
87.06	5.418
87.28	4.493
87.5	7.568
87.72	2.594
87.94	8.608
88.16	15.759
88.38	0.051
88.6	3.317
88.82	3.353
89.04	4.468
89.26	6.867
89.48	4.392
89.7	12.857
89.92	4.651
