Measurement: Powder, Xray Data XY Processed
Mineral: Heulandite-Ca
Rruff sample: R050097
Ideal chemistry: (Ca,Na,K)_5_(Si_27_Al_9_)O_72_26H_2_O
Locality: Rat's Nest Claim, Custer County, Idaho, USA
Source: John Cornish
Description: Pale pink coffin-shaped tabular single crystals
Diffraction sample description: Powder
Measured chemistry: (Ca_0.66_Na_0.30_K_0.04_)_5_(Si_0.77_Al_0.23_)_36_O_72_Â·24H_2_O
Cell parameters: a: 17.720(3) b: 17.915(4) c: 7.4233(7) alpha: 90. beta: 116.47(1) gamma: 90. volume: 2109.5(4) crystal system: monoclinic
x	intensity
5	0
5.22	11.6668
5.44	16.5917
5.66	16.5993
5.88	14.631
6.1	13.9124
6.32	13.32
6.54	6.49425
6.76	3.68519
6.98	5.61492
7.2	5.54442
7.42	15.2704
7.64	10.6301
7.86	7.02029
8.08	12.5685
8.3	6.82485
8.52	14.5716
8.74	0.603996
8.96	3.24806
9.18	4.07659
9.4	9.1745
9.62	27.8778
9.84	217.818
10.06	23.6332
10.28	3.75778
10.5	3.03921
10.72	10.1695
10.94	3.40691
11.16	92.908
11.38	8.51443
11.6	2.36494
11.82	11.7066
12.04	0.157203
12.26	10.9789
12.48	0.326183
12.7	15.3927
12.92	16.2351
13.14	12.3127
13.36	53.5115
13.58	2.70772
13.8	8.81949
14.02	3.4457
14.24	4.3302
14.46	3.40314
14.68	1.71118
14.9	9.97761
15.12	6.77789
15.34	8.60465
15.56	4.18244
15.78	9.71114
16	1.5109
16.22	4.47801
16.44	0.538881
16.66	31.5141
16.88	41.513
17.1	4.52937
17.32	56.6412
17.54	55.1877
17.76	9.05164
17.98	5.26909
18.2	3.44974
18.42	9.60117
18.64	10.6111
18.86	15.9169
19.08	94.0008
19.3	21.6825
19.52	10.072
19.74	11.8278
19.96	10.9317
20.18	4.28861
20.4	39.2757
20.62	6.41067
20.84	2.05582
21.06	2.60893
21.28	2.7986
21.5	7.05436
21.72	1.38092
21.94	4.25312
22.16	11.3065
22.38	210.053
22.6	58.1469
22.82	84.5333
23.04	18.7296
23.26	22.6417
23.48	2.17281
23.7	5.42445
23.92	11.5145
24.14	4.69732
24.36	6.03029
24.58	6.13437
24.8	5.93966
25.02	21.0878
25.24	4.32636
25.46	8.7468
25.68	29.2443
25.9	14.4502
26.12	30.7384
26.34	21.0254
26.56	9.88035
26.78	2.10675
27	5.74629
27.22	11.4911
27.44	8.14794
27.66	2.58142
27.88	6.73895
28.1	60.7859
28.32	15.6209
28.54	65.6555
28.76	16.211
28.98	18.2799
29.2	8.14852
29.42	11.1811
29.64	9.36528
29.86	61.8375
30.08	164.672
30.3	80.4138
30.52	2.10374
30.74	8.05413
30.96	13.6501
31.18	6.60655
31.4	4.18645
31.62	1.64196
31.84	10.0721
32.06	37.6727
32.28	15.435
32.5	10.5792
32.72	17.9159
32.94	45.3891
33.16	13.4214
33.38	2.68494
33.6	14.8213
33.82	10.5738
34.04	9.9529
34.26	2.75701
34.48	6.18335
34.7	1.00832
34.92	9.04632
35.14	14.8095
35.36	16.5707
35.58	27.7613
35.8	2.13325
36.02	4.53921
36.24	12.6912
36.46	26.1221
36.68	10.215
36.9	15.3867
37.12	17.3736
37.34	0.591835
37.56	2.81198
37.78	13.3093
38	5.4386
38.22	14.5775
38.44	9.88647
38.66	2.39532
38.88	5.43104
39.1	12.8315
39.32	14.8463
39.54	6.01549
39.76	7.1696
39.98	0.786403
40.2	5.39736
40.42	14.6319
40.64	1.92674
40.86	1.97299
41.08	2.21786
41.3	8.14812
41.52	4.74422
41.74	1.77051
41.96	6.81643
42.18	1.3009
42.4	3.60441
42.62	2.07553
42.84	0.909541
43.06	10.9387
43.28	16.3131
43.5	0.822779
43.72	17.7799
43.94	0.917829
44.16	8.10537
44.38	2.17337
44.6	1.08905
44.82	14.0786
45.04	13.0327
45.26	4.90977
45.48	2.65317
45.7	12.1039
45.92	12.3174
46.14	17.4789
46.36	13.5714
46.58	9.58341
46.8	6.0731
47.02	2.94831
47.24	3.66016
47.46	8.24568
47.68	10.6956
47.9	13.0623
48.12	5.38267
48.34	4.53299
48.56	10.8956
48.78	13.8488
49	4.66114
49.22	10.4421
49.44	3.78211
49.66	3.1643
49.88	4.09923
50.1	9.81603
50.32	3.59288
50.54	5.94527
50.76	0.632224
50.98	17.76
51.2	24.4564
51.42	3.2074
51.64	25.7107
51.86	7.47958
52.08	6.47778
52.3	8.48302
52.52	12.1921
52.74	20.0766
52.96	9.53218
53.18	22.0341
53.4	12.8779
53.62	10.5447
53.84	0.055038
54.06	10.2606
54.28	5.62098
54.5	5.90044
54.72	8.88557
54.94	9.32286
55.16	6.94273
55.38	10.0419
55.6	9.30146
55.82	13.9019
56.04	1.74833
56.26	6.81192
56.48	10.0554
56.7	6.94267
56.92	0.885059
57.14	11.9156
57.36	5.25633
57.58	8.20709
57.8	16.4229
58.02	5.15976
58.24	8.17482
58.46	0.178264
58.68	2.16154
58.9	5.18947
59.12	6.43031
59.34	15.6748
59.56	4.74139
59.78	2.61771
60	2.57977
60.22	6.51811
60.44	2.01127
60.66	16.3614
60.88	13.4053
61.1	5.2534
61.32	4.30475
61.54	0.919093
61.76	9.04549
61.98	12.1303
62.2	7.27962
62.42	14.3154
62.64	8.61625
62.86	6.02003
63.08	4.08708
63.3	3.13784
63.52	2.06125
63.74	8.90559
63.96	8.65497
64.18	10.7021
64.4	1.47924
64.62	1.00793
64.84	5.83586
65.06	12.3937
65.28	8.30961
65.5	0.88848
65.72	1.88535
65.94	5.33485
66.16	9.63715
66.38	8.807
66.6	5.81736
66.82	9.91437
67.04	0.305311
67.26	1.60263
67.48	10.524
67.7	5.84147
67.92	13.9178
68.14	10.7922
68.36	8.44221
68.58	1.26677
68.8	1.44174
69.02	8.4482
69.24	15.3846
69.46	9.46236
69.68	8.65758
69.9	3.81086
70.12	6.87374
70.34	7.18562
70.56	8.35799
70.78	5.75031
71	5.90341
71.22	9.01501
71.44	8.10873
71.66	6.13685
71.88	0.645022
72.1	2.36439
72.32	4.29515
72.54	6.14415
72.76	4.05275
72.98	7.10331
73.2	5.83616
73.42	4.60604
73.64	0.534336
73.86	8.31122
74.08	10.0244
74.3	7.81067
74.52	1.68903
74.74	2.73771
74.96	5.6393
75.18	2.72723
75.4	16.7484
75.62	12.9805
75.84	5.37115
76.06	2.39717
76.28	4.74577
76.5	1.95701
76.72	2.94211
76.94	3.11514
77.16	12.1579
77.38	4.35099
77.6	5.24754
77.82	1.96907
78.04	6.14296
78.26	8.14488
78.48	5.37568
78.7	9.19676
78.92	2.16604
79.14	3.25574
79.36	8.30178
79.58	5.31183
79.8	7.37494
80.02	4.3792
80.24	3.48374
80.46	11.4089
80.68	4.22867
80.9	9.02521
81.12	8.10888
81.34	4.19982
81.56	8.17905
81.78	7.38221
82	2.62598
82.22	9.5592
82.44	3.18734
82.66	5.17586
82.88	3.33068
83.1	2.46362
83.32	1.79439
83.54	3.87341
83.76	7.07453
83.98	8.21782
84.2	6.16624
84.42	4.05262
84.64	9.08605
84.86	6.71737
85.08	0.765718
85.3	2.77344
85.52	3.07221
85.74	2.08176
85.96	3.29083
86.18	6.24253
86.4	7.29789
86.62	5.39422
86.84	5.46294
87.06	2.6781
87.28	7.71065
87.5	2.6749
87.72	2.63902
87.94	0.462725
88.16	1.69628
88.38	4.66523
88.6	5.80867
88.82	2.03517
89.04	6.27032
89.26	6.36213
89.48	3.83925
89.7	0.861942
89.92	4.59416
