Measurement: Powder, Xray Data XY Processed
Mineral: Heulandite-Ca
Rruff sample: R040021
Ideal chemistry: (Ca,Na,K)_5_(Si_27_Al_9_)O_72_26H_2_O
Locality: Prospect Park, Patterson, Passaic County, New Jersey, USA
Source: University of Arizona Mineral Museum
Description: Group of colorless lamellar crystals
Diffraction sample description: Powder
Measured chemistry: Na_0.25_(Na_0.55_K_0.45_)_Σ=1_(Ca_2.42_Na_0.85_Sr_0.73_)_Σ=4.00_(Si_27.60_Al_8.40_)_Σ=36_O_72_·24H_2_O ; H_2_O estimated by difference
Cell parameters: a: 17.742(2) b: 17.852(4) c: 7.4293(7) alpha: 90. beta: 116.46(1) gamma: 90. volume: 2106.7(4) crystal system: monoclinic
x	intensity
5	0
5.22	22.014
5.44	20.906
5.66	8.88
5.88	12.919
6.1	8.157
6.32	13.941
6.54	13.386
6.76	18.233
6.98	7.466
7.2	14.726
7.42	17.825
7.64	4.732
7.86	6.409
8.08	1.819
8.3	11.951
8.52	5.053
8.74	12.991
8.96	38.764
9.18	1.096
9.4	13.891
9.62	27.651
9.84	319.779
10.06	64.022
10.28	8.91
10.5	9.094
10.72	8.024
10.94	14.826
11.16	189.409
11.38	9.336
11.6	0.355
11.82	2.562
12.04	14.169
12.26	5.704
12.48	9.158
12.7	18.459
12.92	23.291
13.14	18.955
13.36	71.93
13.58	9.928
13.8	6.731
14.02	2.336
14.24	12.61
14.46	3.591
14.68	5.779
14.9	21.612
15.12	3.732
15.34	5.527
15.56	8.8
15.78	2.328
16	16.988
16.22	2.857
16.44	0.71
16.66	74.572
16.88	116.179
17.1	9.231
17.32	132.488
17.54	72.378
17.76	18.502
17.98	7.647
18.2	8.669
18.42	6.838
18.64	10.122
18.86	4.167
19.08	160.257
19.3	33.602
19.52	4.515
19.74	6.714
19.96	23.066
20.18	16.533
20.4	41.558
20.62	5.673
20.84	4.151
21.06	1.244
21.28	2.139
21.5	2.512
21.72	7.754
21.94	1.046
22.16	19.688
22.38	416.058
22.6	92.129
22.82	122.102
23.04	38.032
23.26	34.33
23.48	3.231
23.7	3.531
23.92	62.387
24.14	4.164
24.36	6.799
24.58	7.538
24.8	1.705
25.02	54.072
25.24	6.063
25.46	6.518
25.68	57.887
25.9	23.672
26.12	44.668
26.34	18.779
26.56	9.776
26.78	40.798
27	1.664
27.22	8.462
27.44	1.038
27.66	2.036
27.88	11.022
28.1	97.899
28.32	6.666
28.54	102.141
28.76	43.052
28.98	19.127
29.2	14.058
29.42	45.966
29.64	12.573
29.86	133.047
30.08	266.82
30.3	229.239
30.52	1.998
30.74	4.335
30.96	5.606
31.18	10.021
31.4	15.263
31.62	1.899
31.84	30.284
32.06	113.129
32.28	2.39
32.5	5.518
32.72	30.608
32.94	97.613
33.16	8.165
33.38	8.807
33.6	20.004
33.82	17.045
34.04	12.451
34.26	0.225
34.48	4.972
34.7	9.098
34.92	0.76
35.14	11.726
35.36	6.05
35.58	37.401
35.8	22.583
36.02	10.927
36.24	25.102
36.46	24.5
36.68	15.403
36.9	42.416
37.12	23.108
37.34	9.447
37.56	0.558
37.78	10.004
38	16.385
38.22	17.804
38.44	0.141
38.66	3.153
38.88	11.889
39.1	19.285
39.32	28.691
39.54	11.126
39.76	11.555
39.98	12.149
40.2	13.131
40.42	23.515
40.64	20.181
40.86	16.587
41.08	8.308
41.3	13.144
41.52	7.065
41.74	0.9
41.96	10.335
42.18	9.012
42.4	9.668
42.62	25.828
42.84	12.485
43.06	15.646
43.28	18.931
43.5	17.931
43.72	18.997
43.94	5.139
44.16	5.226
44.38	5.688
44.6	7.889
44.82	32.087
45.04	18.279
45.26	1.448
45.48	10.378
45.7	7.002
45.92	11.986
46.14	10.185
46.36	57.16
46.58	5.836
46.8	10.691
47.02	10.343
47.24	12.929
47.46	19.389
47.68	16.939
47.9	12.281
48.12	7.387
48.34	11.677
48.56	11.52
48.78	22.654
49	10.669
49.22	9.665
49.44	0.468
49.66	5.431
49.88	13.871
50.1	6.184
50.32	2.809
50.54	5.386
50.76	5.8
50.98	1.668
51.2	44.85
51.42	31.755
51.64	24.182
51.86	39.247
52.08	7.952
52.3	2.987
52.52	11.477
52.74	7.251
52.96	13.564
53.18	26.109
53.4	34.711
53.62	0.92
53.84	1.507
54.06	18.31
54.28	8.165
54.5	8.517
54.72	1.18
54.94	11.401
55.16	7.535
55.38	0.289
55.6	18.703
55.82	7.648
56.04	10.575
56.26	14.702
56.48	0.069
56.7	11.675
56.92	15.777
57.14	18.884
57.36	13.265
57.58	0.556
57.8	11.564
58.02	9.793
58.24	9.707
58.46	6.486
58.68	5.611
58.9	11.087
59.12	9.183
59.34	21
59.56	11.632
59.78	16.544
60	6.315
60.22	4.681
60.44	3.084
60.66	9.569
60.88	14.587
61.1	17.502
61.32	7.368
61.54	4.108
61.76	1.151
61.98	7.602
62.2	5.464
62.42	15.384
62.64	29.9
62.86	18.239
63.08	1.483
63.3	9.49
63.52	11.144
63.74	20.049
63.96	5.91
64.18	12.882
64.4	12.724
64.62	8.5
64.84	19.305
65.06	25.305
65.28	9.538
65.5	18.66
65.72	3.608
65.94	8.684
66.16	0.075
66.38	0.719
66.6	2.941
66.82	9.287
67.04	3.186
67.26	9.812
67.48	10.136
67.7	8.179
67.92	9.343
68.14	8.168
68.36	4.777
68.58	6.733
68.8	12.019
69.02	8.651
69.24	10.696
69.46	18.078
69.68	9.886
69.9	9.903
70.12	8.039
70.34	12.669
70.56	13.892
70.78	9.196
71	5.109
71.22	9.261
71.44	8.612
71.66	5.851
71.88	5.952
72.1	0.113
72.32	11.234
72.54	7.232
72.76	15.033
72.98	7.808
73.2	3.419
73.42	7.346
73.64	7.291
73.86	0.779
74.08	1.599
74.3	11.446
74.52	11.061
74.74	6.105
74.96	15.136
75.18	7.076
75.4	9.307
75.62	18.374
75.84	8.581
76.06	8.672
76.28	3.735
76.5	7.801
76.72	2.934
76.94	0.882
77.16	13.043
77.38	0.226
77.6	3.967
77.82	5.006
78.04	8.392
78.26	14.792
78.48	3
78.7	9.539
78.92	5.725
79.14	4.882
79.36	11.034
79.58	9.156
79.8	2.173
80.02	7.599
80.24	11.693
80.46	9.992
80.68	12.91
80.9	4.997
81.12	9.044
81.34	5.21
81.56	2.412
81.78	0.326
82	7.75
82.22	2.643
82.44	9.668
82.66	10.943
82.88	4.66
83.1	11.764
83.32	2.898
83.54	1.928
83.76	0.981
83.98	0.23
84.2	7.684
84.42	0.813
84.64	1.91
84.86	9.772
85.08	3.119
85.3	5.937
85.52	10.843
85.74	4.772
85.96	10.783
86.18	1.858
86.4	0.477
86.62	9.28
86.84	6.436
87.06	1.813
87.28	1.908
87.5	3.099
87.72	3.382
87.94	1.477
88.16	1.703
88.38	0.794
88.6	10.979
88.82	5.176
89.04	11.976
89.26	7.184
89.48	5.258
89.7	3.511
89.92	3.968
