Measurement: Powder, Xray Data XY Processed
Mineral: Hibonite
Rruff sample: R061069
Ideal chemistry: CaAl_12_O_19_
Locality: Madagascar
Source: Michael Scott
Description: Black platy hexagonal prism
Diffraction sample description: Powder
Measured chemistry: (Ca_0.82_Ce_0.10_La_0.07_Nd_0.01_)_Σ=1_(Al_10.40_Ti_0.64_Fe_0.59_Mg_0.30_Si_0.07_)_Σ=12_O_19_
Cell parameters: a: 5.6082(2) b: 5.6082(2) c: 22.226(2) alpha: 90 beta: 90 gamma: 120 volume: 605.40(5) crystal system: hexagonal
x	intensity
5	0
5.22	2.93759
5.44	2.27794
5.66	6.93779
5.88	2.2678
6.1	4.96067
6.32	3.7907
6.54	3.56249
6.76	17.1875
6.98	4.03232
7.2	17.2937
7.42	6.41921
7.64	23.5078
7.86	0.2374
8.08	10.121
8.3	7.18317
8.52	7.66932
8.74	1.05337
8.96	0.698055
9.18	6.40898
9.4	4.47255
9.62	2.99892
9.84	1.09784
10.06	4.38761
10.28	4.55748
10.5	5.6152
10.72	21.0634
10.94	0.078042
11.16	9.39906
11.38	10.587
11.6	10.6549
11.82	0.578611
12.04	12.4058
12.26	4.38073
12.48	4.30066
12.7	0.307462
12.92	11.3016
13.14	9.30777
13.36	9.38361
13.58	7.72759
13.8	14.7588
14.02	4.87928
14.24	9.08519
14.46	1.34892
14.68	4.85531
14.9	4.01032
15.12	15.069
15.34	9.74653
15.56	7.72712
15.78	4.64569
16	21.1102
16.22	9.07315
16.44	5.53202
16.66	2.63631
16.88	3.17707
17.1	11.1386
17.32	2.16008
17.54	4.1979
17.76	9.81889
17.98	14.0641
18.2	8.22476
18.42	0.626626
18.64	6.78689
18.86	11.4554
19.08	9.53646
19.3	6.65454
19.52	7.92844
19.74	4.94726
19.96	23.0089
20.18	11.1209
20.4	10.1936
20.62	7.09286
20.84	7.64937
21.06	0.501302
21.28	0.7183
21.5	2.14173
21.72	5.38762
21.94	10.2441
22.16	0.501181
22.38	1.91046
22.6	18.0221
22.82	5.71056
23.04	4.56327
23.26	2.53999
23.48	8.24109
23.7	10.3771
23.92	12.3133
24.14	36.2785
24.36	10.1539
24.58	12.1903
24.8	6.4881
25.02	16.4273
25.24	1.26246
25.46	15.2839
25.68	15.6545
25.9	1.89111
26.12	9.53257
26.34	7.30111
26.56	4.39185
26.78	7.67084
27	12.8952
27.22	7.61355
27.44	15.5929
27.66	12.5069
27.88	6.48673
28.1	0.040321
28.32	8.65222
28.54	9.63062
28.76	12.5836
28.98	13.1714
29.2	6.49031
29.42	7.33975
29.64	10.2221
29.86	10.2702
30.08	4.05861
30.3	14.8343
30.52	2.71442
30.74	2.71344
30.96	0.234613
31.18	1.8614
31.4	17.0415
31.62	6.52892
31.84	7.05032
32.06	15.8877
32.28	94.9595
32.5	5.91123
32.72	6.87322
32.94	18.7601
33.16	3.5175
33.38	5.06226
33.6	22.5004
33.82	132.826
34.04	9.51877
34.26	9.96076
34.48	2.20786
34.7	7.46725
34.92	4.38506
35.14	13.2542
35.36	6.50158
35.58	17.405
35.8	32.0649
36.02	29.6133
36.24	7.87971
36.46	5.73221
36.68	8.49963
36.9	7.56675
37.12	23.7519
37.34	29.1698
37.56	0.868023
37.78	10.9357
38	14.9735
38.22	6.12536
38.44	13.3605
38.66	13.1968
38.88	0.554773
39.1	32.6365
39.32	6.02109
39.54	5.97079
39.76	10.0832
39.98	3.98441
40.2	8.12591
40.42	3.47889
40.64	106.102
40.86	17.2019
41.08	0.467014
41.3	7.42754
41.52	7.35156
41.74	2.09934
41.96	11.8302
42.18	15.7198
42.4	102.311
42.62	7.17204
42.84	3.84705
43.06	0.065012
43.28	10.0047
43.5	11.9593
43.72	10.9641
43.94	2.61858
44.16	4.40661
44.38	11.8965
44.6	72.1343
44.82	4.38295
45.04	6.6489
45.26	8.21155
45.48	0.240518
45.7	1.17043
45.92	0.377417
46.14	4.55522
46.36	5.37082
46.58	6.56507
46.8	5.34488
47.02	5.20097
47.24	9.26132
47.46	10.0844
47.68	3.96691
47.9	10.6793
48.12	1.86941
48.34	5.89433
48.56	13.0515
48.78	10.0507
49	9.2106
49.22	9.37254
49.44	5.68865
49.66	10.7577
49.88	14.995
50.1	13.7878
50.32	14.8786
50.54	2.43763
50.76	11.5787
50.98	9.36421
51.2	15.3766
51.42	3.10553
51.64	4.90089
51.86	17.3197
52.08	8.11455
52.3	8.9169
52.52	6.90926
52.74	18.02
52.96	19.3662
53.18	6.63905
53.4	7.2213
53.62	9.35521
53.84	19.6702
54.06	12.1577
54.28	18.4453
54.5	3.25755
54.72	15.0869
54.94	4.97985
55.16	3.67882
55.38	9.26185
55.6	4.5828
55.82	6.99693
56.04	8.7507
56.26	7.22978
56.48	7.50393
56.7	1.94248
56.92	9.445
57.14	2.72528
57.36	11.2664
57.58	9.20319
57.8	2.87575
58.02	76.6133
58.24	28.1884
58.46	9.94248
58.68	8.93361
58.9	2.17954
59.12	3.70422
59.34	13.4224
59.56	69.938
59.78	23.5362
60	17.7377
60.22	2.02502
60.44	18.0879
60.66	5.6844
60.88	3.91566
61.1	2.59417
61.32	12.7557
61.54	5.12043
61.76	2.85866
61.98	2.73526
62.2	5.64646
62.42	10.6165
62.64	8.71457
62.86	1.49367
63.08	13.5876
63.3	7.65677
63.52	8.82715
63.74	10.6433
63.96	6.8309
64.18	9.51506
64.4	15.8399
64.62	5.84184
64.84	5.75476
65.06	3.49004
65.28	8.21237
65.5	3.67128
65.72	12.1217
65.94	6.75088
66.16	17.5332
66.38	2.1309
66.6	21.0483
66.82	26.7514
67.04	20.5601
67.26	2.37706
67.48	10.9215
67.7	3.43567
67.92	12.1672
68.14	6.68056
68.36	3.26429
68.58	9.56475
68.8	7.64355
69.02	3.5337
69.24	10.5444
69.46	6.71853
69.68	4.59229
69.9	7.28343
70.12	1.61905
70.34	5.07867
70.56	11.6279
70.78	28.7204
71	18.5803
71.22	6.50774
71.44	2.39619
71.66	3.42586
71.88	7.59748
72.1	2.07561
72.32	3.37392
72.54	2.83628
72.76	3.17898
72.98	10.3267
73.2	7.42063
73.42	1.6186
73.64	1.07372
73.86	7.12129
74.08	4.9805
74.3	13.7719
74.52	0.560051
74.74	13.4864
74.96	5.21751
75.18	15.0646
75.4	4.02704
75.62	7.76067
75.84	4.7165
76.06	6.3494
76.28	6.65623
76.5	4.67294
76.72	4.6788
76.94	4.25398
77.16	14.2577
77.38	4.42093
77.6	16.31
77.82	0.9342
78.04	5.28351
78.26	6.19937
78.48	2.12913
78.7	1.24365
78.92	10.1737
79.14	3.17294
79.36	4.36496
79.58	8.55224
79.8	1.44422
80.02	24.5626
80.24	13.9158
80.46	5.8975
80.68	8.26089
80.9	6.56705
81.12	0.635569
81.34	15.5253
81.56	3.60641
81.78	1.037
82	5.96399
82.22	9.84354
82.44	10.7738
82.66	14.4558
82.88	1.37833
83.1	1.2849
83.32	10.9285
83.54	4.94079
83.76	10.3945
83.98	1.57166
84.2	6.38291
84.42	7.43958
84.64	9.57403
84.86	0.009258
85.08	8.1003
85.3	5.3115
85.52	0.531124
85.74	0.594852
85.96	7.70877
86.18	12.8413
86.4	11.6464
86.62	12.7143
86.84	14.4754
87.06	13.049
87.28	12.8918
87.5	7.76332
87.72	20.7145
87.94	19.3315
88.16	17.3883
88.38	8.16494
88.6	3.99581
88.82	8.09326
89.04	16.3744
89.26	6.88875
89.48	11.1832
89.7	10.4479
89.92	4.48629
