Measurement: Powder, Xray Data XY Processed
Mineral: Hollandite
Rruff sample: R060852
Ideal chemistry: Ba(Mn^4+^_6_Mn^3+^_2_)O_16_
Locality: Ultevis, Sorharas, Sweden
Source: Michael Scott
Description: Black semi-metallic elongated prismatic crystals associated with purple fluorite
Diffraction sample description: Powder
Measured chemistry: (Ba_0.71_Pb_0.12_Na_0.11_Sr_0.04_K_0.02_)_Σ=1_(Mn^4+^_5.85_Fe^3+^_1.23_Mn^3+^_0.58_Ti_0.28_Al_0.06_)_Σ=8_O_16_ ; trace amounts of Ca; Mn^4+^ and Mn^3+^ splitted by charge balance
Cell parameters: a: 9.981(1) b: 2.8736(3) c: 9.750(4) alpha: 90 beta: 90.82(2) gamma: 90 volume: 279.6(1) crystal system: monoclinic
x	intensity
5	0
5.22	0.786057
5.44	16.0765
5.66	8.82764
5.88	11.8207
6.1	17.2153
6.32	17.1379
6.54	15.5016
6.76	20.0667
6.98	22.8904
7.2	12.027
7.42	19.6097
7.64	11.5802
7.86	18.5897
8.08	22.4063
8.3	10.4917
8.52	31.4179
8.74	21.1354
8.96	8.28059
9.18	6.89555
9.4	5.27384
9.62	10.5866
9.84	18.9516
10.06	6.54739
10.28	8.70092
10.5	8.26312
10.72	13.4531
10.94	6.57451
11.16	4.13121
11.38	11.2021
11.6	14.4391
11.82	12.1347
12.04	0.946712
12.26	13.5193
12.48	17.4623
12.7	17.7682
12.92	10.6085
13.14	7.50228
13.36	7.6166
13.58	5.37713
13.8	1.5068
14.02	4.47474
14.24	7.96567
14.46	13.5934
14.68	2.88411
14.9	3.26094
15.12	19.1224
15.34	7.22969
15.56	1.21334
15.78	11.6845
16	12.2202
16.22	19.0047
16.44	11.8562
16.66	11.2491
16.88	11.3959
17.1	5.87102
17.32	5.27004
17.54	16.9625
17.76	26.8208
17.98	28.874
18.2	35.5609
18.42	12.1981
18.64	5.02464
18.86	2.72367
19.08	15.6062
19.3	16.9906
19.52	13.2527
19.74	20.5647
19.96	3.81504
20.18	6.09601
20.4	15.3356
20.62	14.1739
20.84	22.484
21.06	15.1154
21.28	13.0306
21.5	30.8318
21.72	4.52386
21.94	9.26846
22.16	13.2585
22.38	8.84947
22.6	7.54127
22.82	10.8927
23.04	10.8154
23.26	12.6725
23.48	5.86988
23.7	15.9857
23.92	0.983021
24.14	12.0404
24.36	7.88358
24.58	9.85353
24.8	12.0146
25.02	14.9092
25.24	13.6005
25.46	24.2994
25.68	35.0561
25.9	17.2507
26.12	16.6683
26.34	2.23081
26.56	25.1103
26.78	8.13379
27	5.46957
27.22	1.49721
27.44	13.7182
27.66	4.13682
27.88	24.6158
28.1	10.6197
28.32	52.2354
28.54	75.2208
28.76	65.1245
28.98	25.9885
29.2	19.5733
29.42	6.08968
29.64	1.32682
29.86	7.2887
30.08	4.8347
30.3	6.47318
30.52	13.4533
30.74	11.4559
30.96	14.5178
31.18	10.6035
31.4	1.86488
31.62	10.2409
31.84	31.1728
32.06	6.29135
32.28	23.4641
32.5	29.8702
32.72	17.3139
32.94	7.2359
33.16	4.81353
33.38	0.170708
33.6	20.6952
33.82	9.68076
34.04	1.19539
34.26	12.8496
34.48	18.08
34.7	2.50133
34.92	2.14365
35.14	12.1788
35.36	0.452442
35.58	13.18
35.8	26.8186
36.02	24.7451
36.24	5.28713
36.46	7.13319
36.68	1.81585
36.9	22.8882
37.12	15.7883
37.34	72.7345
37.56	14.5331
37.78	1.6655
38	14.8795
38.22	20.6704
38.44	2.84774
38.66	7.21175
38.88	3.87852
39.1	20.4167
39.32	6.08366
39.54	16.8545
39.76	4.53303
39.98	2.05557
40.2	5.18024
40.42	10.3322
40.64	17.3565
40.86	28.6059
41.08	23.176
41.3	8.12468
41.52	23.2021
41.74	12.1017
41.96	8.89027
42.18	4.29507
42.4	27.8077
42.62	0.446644
42.84	7.93705
43.06	8.86002
43.28	8.62825
43.5	14.1002
43.72	18.8744
43.94	7.87321
44.16	4.05853
44.38	5.09221
44.6	7.94037
44.82	25.1085
45.04	7.98452
45.26	6.41012
45.48	24.2931
45.7	16.821
45.92	5.56345
46.14	5.33741
46.36	11.5275
46.58	19.356
46.8	12.8416
47.02	12.9709
47.24	14.6838
47.46	13.1416
47.68	11.0453
47.9	19.9429
48.12	7.93709
48.34	10.0652
48.56	7.20975
48.78	9.77649
49	13.4293
49.22	17.5781
49.44	9.85948
49.66	11.8399
49.88	13.4199
50.1	28.6485
50.32	13.9431
50.54	17.3128
50.76	13.6619
50.98	8.72096
51.2	5.59132
51.42	24.7187
51.64	15.0116
51.86	2.18822
52.08	15.3467
52.3	16.759
52.52	7.61369
52.74	11.8081
52.96	14.5666
53.18	3.22351
53.4	10.0938
53.62	0.089508
53.84	0.614048
54.06	13.8897
54.28	3.61809
54.5	13.5346
54.72	8.79873
54.94	21.459
55.16	20.2178
55.38	14.2038
55.6	21.2116
55.82	11.639
56.04	18.5206
56.26	11.2482
56.48	8.73692
56.7	19.5734
56.92	12.1484
57.14	6.85025
57.36	9.76417
57.58	4.80926
57.8	9.26571
58.02	2.1042
58.24	8.04172
58.46	8.32874
58.68	13.3534
58.9	8.17583
59.12	16.9602
59.34	23.6598
59.56	9.49827
59.78	7.36157
60	15.6098
60.22	3.28529
60.44	20.6254
60.66	15.9341
60.88	8.16641
61.1	8.96702
61.32	17.274
61.54	12.8973
61.76	7.42781
61.98	13.1066
62.2	15.618
62.42	3.47373
62.64	5.71122
62.86	3.32359
63.08	3.30205
63.3	17.3092
63.52	12.7563
63.74	5.5817
63.96	11.3887
64.18	3.01866
64.4	24.8207
64.62	0.760014
64.84	14.466
65.06	18.3492
65.28	18.0579
65.5	5.07651
65.72	16.0136
65.94	15.4292
66.16	18.3929
66.38	1.52492
66.6	1.11026
66.82	29.702
67.04	26.6196
67.26	15.5157
67.48	2.75641
67.7	4.35526
67.92	10.4254
68.14	0.994328
68.36	5.23912
68.58	30.8545
68.8	15.5515
69.02	5.64494
69.24	3.30413
69.46	14.2428
69.68	8.61548
69.9	15.8718
70.12	13.0608
70.34	9.1721
70.56	17.9356
70.78	16.8383
71	16.3138
71.22	0.599041
71.44	3.88198
71.66	18.2743
71.88	4.62381
72.1	8.89584
72.32	11.1492
72.54	18.2938
72.76	13.1376
72.98	17.7969
73.2	13.1234
73.42	23.0425
73.64	8.27418
73.86	15.3462
74.08	16.0641
74.3	9.56016
74.52	14.2394
74.74	17.306
74.96	18.855
75.18	4.65649
75.4	17.5564
75.62	16.1886
75.84	18.7552
76.06	13.0208
76.28	15.3005
76.5	13.9011
76.72	0.101139
76.94	11.5864
77.16	14.703
77.38	5.49049
77.6	12.6396
77.82	14.4553
78.04	20.021
78.26	10.3651
78.48	3.4608
78.7	8.55156
78.92	7.21435
79.14	0.128593
79.36	21.6379
79.58	19.7513
79.8	5.08301
80.02	30.882
80.24	12.3137
80.46	6.09889
80.68	10.9152
80.9	0.788158
81.12	13.0003
81.34	2.23149
81.56	7.66883
81.78	11.0383
82	16.6866
82.22	11.4627
82.44	2.81218
82.66	10.327
82.88	4.03716
83.1	0.918037
83.32	23.0734
83.54	18.737
83.76	4.81118
83.98	15.5576
84.2	17.7419
84.42	18.8192
84.64	11.4392
84.86	13.88
85.08	13.391
85.3	9.95741
85.52	7.25062
85.74	19.0247
85.96	9.58688
86.18	0.400829
86.4	13.1734
86.62	2.38894
86.84	7.64566
87.06	4.29418
87.28	5.48384
87.5	14.4332
87.72	21.5404
87.94	16.6064
88.16	9.32224
88.38	13.7009
88.6	11.0813
88.82	11.1609
89.04	22.3852
89.26	20.2077
89.48	23.5723
89.7	20.8964
89.92	19.1939
