Measurement: Powder, Xray Data XY Processed
Mineral: Howieite
Rruff sample: R060031
Ideal chemistry: Na(Fe^2+^,Fe^3+^,Al,Mg)_12_(Si_6_O_17_)_2_(O,OH)_10_
Locality: Laytonville quarry, near Longvale, California, USA
Source: University of Arizona Mineral Museum
Description: Black bladed crystals associated with quartz and siderite
Diffraction sample description: Powder, cell parameters are from single crystal
Measured chemistry: Na_1.00_(Fe^3+^_4.41_Mn_2.68_Fe^2+^_3.89_Al_0.59_Mg_0.43_)_Î£=12_(Si_6.00_O_17_)_2_(OH)_10_
Cell parameters: a: 10.154(3) b: 9.751(4) c: 9.577(2) alpha: 91.25(1) beta: 70.71(1) gamma: 109.09(1) volume: 841.9(7) crystal system: triclinic
x	intensity
5	0
5.22	1.941
5.44	11.75
5.66	2.68
5.88	14.321
6.1	38.303
6.32	21.465
6.54	33.172
6.76	24.312
6.98	31.032
7.2	39.187
7.42	6.312
7.64	11.376
7.86	15.141
8.08	7.408
8.3	8.297
8.52	22.631
8.74	34.822
8.96	20.196
9.18	13.625
9.4	12.595
9.62	151.353
9.84	68.969
10.06	16.789
10.28	4.335
10.5	1.549
10.72	14.104
10.94	13.915
11.16	60.511
11.38	19.232
11.6	13.831
11.82	9.319
12.04	5.384
12.26	16.643
12.48	7.103
12.7	6.63
12.92	4.925
13.14	15.127
13.36	6.303
13.58	18.702
13.8	33.51
14.02	1.202
14.24	0.462
14.46	12.684
14.68	19.561
14.9	10.889
15.12	16.991
15.34	10.691
15.56	28.647
15.78	19.779
16	15.5
16.22	17.973
16.44	2.315
16.66	4.087
16.88	11.901
17.1	0.1
17.32	34.225
17.54	9.075
17.76	5.305
17.98	13.508
18.2	13.053
18.42	16.008
18.64	27.171
18.86	37.831
19.08	5.59
19.3	27.408
19.52	15.514
19.74	25.432
19.96	12.295
20.18	3.454
20.4	14.788
20.62	12.366
20.84	5.269
21.06	15.304
21.28	8.868
21.5	23.638
21.72	1.041
21.94	5.913
22.16	18.87
22.38	7.914
22.6	20.473
22.82	2.429
23.04	12.314
23.26	2.422
23.48	15.219
23.7	8.382
23.92	10.905
24.14	10.44
24.36	9.437
24.58	44.943
24.8	13.454
25.02	18.745
25.24	7.566
25.46	18.1
25.68	17.229
25.9	16.443
26.12	15.042
26.34	8.259
26.56	36.87
26.78	1.498
27	14.427
27.22	10.079
27.44	92.318
27.66	28.408
27.88	23.323
28.1	27.888
28.32	36.872
28.54	25.66
28.76	9.789
28.98	12.828
29.2	68.195
29.42	7.812
29.64	10.769
29.86	25.576
30.08	9.197
30.3	25.583
30.52	5.155
30.74	21.282
30.96	25.852
31.18	21.031
31.4	23.042
31.62	10.045
31.84	11.998
32.06	17.329
32.28	70.728
32.5	19.386
32.72	9.56
32.94	0.193
33.16	20.553
33.38	2.751
33.6	45.216
33.82	28.613
34.04	31.005
34.26	41.708
34.48	36.065
34.7	10.344
34.92	22.033
35.14	13.694
35.36	30.441
35.58	12.105
35.8	8.477
36.02	28.266
36.24	11.739
36.46	30.533
36.68	13.065
36.9	1.295
37.12	4.713
37.34	27.189
37.56	32.809
37.78	11.148
38	27.505
38.22	19.889
38.44	16.582
38.66	12.841
38.88	6.502
39.1	8.703
39.32	1.344
39.54	30.041
39.76	3.267
39.98	14.786
40.2	5.646
40.42	3.693
40.64	20.317
40.86	41.894
41.08	25.249
41.3	19.185
41.52	20.787
41.74	13.672
41.96	6.976
42.18	22.648
42.4	22.037
42.62	20.639
42.84	34.933
43.06	21.398
43.28	16.036
43.5	5.098
43.72	20.54
43.94	31.25
44.16	33.393
44.38	6.318
44.6	11.756
44.82	0.662
45.04	50.631
45.26	9.131
45.48	13.384
45.7	9.936
45.92	12.82
46.14	2.75
46.36	2.633
46.58	8.469
46.8	31.001
47.02	0.05
47.24	9.67
47.46	7.417
47.68	20.368
47.9	10.913
48.12	14.093
48.34	14.271
48.56	37.587
48.78	15.93
49	13.17
49.22	39.645
49.44	15.236
49.66	18.648
49.88	8.539
50.1	18.468
50.32	22.771
50.54	33.082
50.76	21.235
50.98	31.123
51.2	15.968
51.42	29.861
51.64	14.671
51.86	30.334
52.08	19.638
52.3	19.538
52.52	30.931
52.74	23.885
52.96	0.363
53.18	20.136
53.4	19.977
53.62	31.095
53.84	13.657
54.06	13.008
54.28	14.124
54.5	11.601
54.72	20.519
54.94	17.714
55.16	17.611
55.38	2.757
55.6	8.141
55.82	17.731
56.04	9.581
56.26	11.681
56.48	9.867
56.7	6.633
56.92	10.055
57.14	16.431
57.36	3.365
57.58	30.228
57.8	30.823
58.02	22.286
58.24	4.742
58.46	8.359
58.68	13.254
58.9	4.893
59.12	20.323
59.34	16.029
59.56	14.151
59.78	6.474
60	14.794
60.22	10.102
60.44	11.852
60.66	6.599
60.88	0.272
61.1	6.882
61.32	19.397
61.54	6.55
61.76	28.405
61.98	23.925
62.2	1.564
62.42	8.713
62.64	7.929
62.86	9.426
63.08	24.387
63.3	31.729
63.52	9.438
63.74	11.416
63.96	17.843
64.18	8.251
64.4	0.51
64.62	25.598
64.84	11.44
65.06	0.651
65.28	16.541
65.5	16.26
65.72	25.522
65.94	19.667
66.16	5.569
66.38	9.862
66.6	11.114
66.82	9.319
67.04	4.637
67.26	7.314
67.48	7.877
67.7	15.695
67.92	23.85
68.14	17.954
68.36	3.21
68.58	51.436
68.8	23.442
69.02	26.094
69.24	3.585
69.46	12.945
69.68	0.492
69.9	22.671
70.12	20.236
70.34	1.726
70.56	30.224
70.78	18.503
71	31.679
71.22	6.375
71.44	12.562
71.66	21.167
71.88	19.962
72.1	13.193
72.32	16.703
72.54	17.686
72.76	4.626
72.98	13.259
73.2	2.614
73.42	14.658
73.64	43.808
73.86	14.047
74.08	11.191
74.3	8.318
74.52	1.148
74.74	11.405
74.96	19.538
75.18	14.037
75.4	8.224
75.62	19.906
75.84	17.373
76.06	16.354
76.28	22.878
76.5	9.012
76.72	27.089
76.94	0.464
77.16	23.447
77.38	10.389
77.6	17.608
77.82	26.527
78.04	24.941
78.26	21.66
78.48	12.653
78.7	10.988
78.92	23.714
79.14	15.58
79.36	22.954
79.58	6.34
79.8	17.213
80.02	19.263
80.24	24.04
80.46	21.824
80.68	17.719
80.9	22.715
81.12	15.924
81.34	11.761
81.56	10.359
81.78	19.316
82	14.702
82.22	1.502
82.44	17.204
82.66	5.297
82.88	1.894
83.1	22.823
83.32	36.653
83.54	9.543
83.76	28.398
83.98	13.481
84.2	10.482
84.42	21.818
84.64	22.187
84.86	24.186
85.08	1.908
85.3	2.623
85.52	12.987
85.74	10.324
85.96	20.908
86.18	13.614
86.4	27.661
86.62	0.594
86.84	0.097
87.06	17.873
87.28	15.291
87.5	18.049
87.72	23.4
87.94	15.042
88.16	2.547
88.38	0.551
88.6	18.077
88.82	33.6
89.04	28.088
89.26	12.447
89.48	22.768
89.7	19.35
89.92	4.552
