Measurement: Powder, Xray Data XY Processed
Mineral: Howieite
Rruff sample: R061009
Ideal chemistry: Na(Fe^2+^,Fe^3+^,Al,Mg)_12_(Si_6_O_17_)_2_(O,OH)_10_
Locality: Quarry on north side of U.S. 101, 5 miles south of Laytonville, Mendocino County, California, USA
Source: Michael Scott
Description: Dark brown bladed crystals in plumose aggregates
Diffraction sample description: Powder
Cell parameters: a: 10.206(4) b: 9.7782(9) c: 9.658(6) alpha: 92.13(4) beta: 70.17(6) gamma: 109.39(1) volume: 852.2(5) crystal system: triclinic
x	intensity
5	0
5.22	16.5711
5.44	3.98622
5.66	12.7723
5.88	21.4922
6.1	28.0667
6.32	19.864
6.54	8.18529
6.76	15.5227
6.98	31.0292
7.2	15.3044
7.42	1.01534
7.64	15.4182
7.86	2.40332
8.08	15.0052
8.3	12.7925
8.52	9.62222
8.74	24.9551
8.96	18.6322
9.18	13.6212
9.4	24.4871
9.62	403.021
9.84	14.8345
10.06	34.4659
10.28	0.565048
10.5	10.582
10.72	6.11241
10.94	17.7288
11.16	221.45
11.38	8.99891
11.6	17.1658
11.82	1.8372
12.04	12.104
12.26	6.08721
12.48	27.6164
12.7	5.25147
12.92	0.622658
13.14	26.2021
13.36	22.1727
13.58	8.86578
13.8	28.4477
14.02	18.8139
14.24	13.7371
14.46	22.1965
14.68	21.4458
14.9	6.90467
15.12	8.32133
15.34	21.5505
15.56	28.5491
15.78	23.2033
16	10.5989
16.22	3.76559
16.44	20.2172
16.66	20.9079
16.88	42.832
17.1	14.2167
17.32	20.2594
17.54	19.2485
17.76	25.8857
17.98	11.8082
18.2	14.6884
18.42	35.6684
18.64	4.98463
18.86	19.9897
19.08	16.5471
19.3	79.6975
19.52	19.6874
19.74	8.66867
19.96	12.5636
20.18	5.98698
20.4	14.9105
20.62	2.79544
20.84	19.7742
21.06	3.34773
21.28	9.514
21.5	3.15737
21.72	15.5023
21.94	22.8059
22.16	20.734
22.38	31.8029
22.6	14.8446
22.82	6.83834
23.04	4.81508
23.26	26.4487
23.48	20.0605
23.7	18.078
23.92	10.1297
24.14	4.20409
24.36	41.4253
24.58	55.1338
24.8	9.1184
25.02	2.41826
25.24	3.92463
25.46	2.2225
25.68	2.70885
25.9	15.9971
26.12	5.68704
26.34	33.9859
26.56	34.1453
26.78	5.89015
27	0.831398
27.22	31.9324
27.44	121.537
27.66	16.0267
27.88	19.4137
28.1	0.285439
28.32	0.201073
28.54	29.2709
28.76	27.9841
28.98	15.2088
29.2	96.4698
29.42	45.6553
29.64	26.2524
29.86	14.473
30.08	35.877
30.3	10.9047
30.52	17.8992
30.74	5.62566
30.96	25.2147
31.18	8.63419
31.4	12.0614
31.62	5.09109
31.84	24.5727
32.06	24.5605
32.28	36.1943
32.5	7.79434
32.72	12.5151
32.94	5.12256
33.16	4.95665
33.38	7.02348
33.6	24.1584
33.82	12.6353
34.04	17.0531
34.26	22.1237
34.48	46.4884
34.7	23.0215
34.92	25.6245
35.14	25.0601
35.36	2.74078
35.58	10.2688
35.8	1.98778
36.02	16.9478
36.24	6.19025
36.46	11.6303
36.68	2.32648
36.9	1.26518
37.12	3.6354
37.34	33.2647
37.56	14.0982
37.78	31.4235
38	8.10754
38.22	8.59121
38.44	7.7974
38.66	7.85571
38.88	7.94768
39.1	5.58383
39.32	0.500282
39.54	19.4193
39.76	4.20867
39.98	17.2355
40.2	4.37938
40.42	18.4923
40.64	7.20539
40.86	44.8715
41.08	18.0478
41.3	17.1129
41.52	14.513
41.74	23.2569
41.96	23.6534
42.18	24.1518
42.4	13.7447
42.62	13.1494
42.84	24.4073
43.06	19.0965
43.28	1.42043
43.5	8.14784
43.72	25.3046
43.94	33.7773
44.16	18.3085
44.38	9.99194
44.6	14.2503
44.82	31.0116
45.04	19.2196
45.26	32.287
45.48	20.5817
45.7	0.954422
45.92	16.6761
46.14	0.634689
46.36	1.65992
46.58	13.1069
46.8	1.56015
47.02	11.0227
47.24	7.20259
47.46	35.8427
47.68	4.89346
47.9	35.2337
48.12	2.47604
48.34	15.3247
48.56	8.67754
48.78	30.619
49	23.0367
49.22	30.8561
49.44	6.38728
49.66	30.5541
49.88	26.8137
50.1	2.13032
50.32	8.93052
50.54	19.3742
50.76	30.3001
50.98	15.3588
51.2	6.45293
51.42	18.3816
51.64	1.81744
51.86	19.975
52.08	6.49241
52.3	2.96175
52.52	21.9244
52.74	15.5436
52.96	23.2426
53.18	13.0803
53.4	17.8212
53.62	16.7388
53.84	16.2713
54.06	17.2063
54.28	20.258
54.5	1.66096
54.72	8.89681
54.94	13.1049
55.16	24.559
55.38	7.52895
55.6	13.0807
55.82	8.03818
56.04	1.87895
56.26	6.99528
56.48	0.064034
56.7	30.7552
56.92	4.31262
57.14	21.6821
57.36	12.115
57.58	8.2029
57.8	26.6375
58.02	5.60607
58.24	21.0789
58.46	14.4361
58.68	17.5145
58.9	14.0533
59.12	24.6339
59.34	18.5591
59.56	8.83321
59.78	13.6917
60	17.0424
60.22	31.8468
60.44	20.652
60.66	21.5091
60.88	10.4312
61.1	27.9356
61.32	13.9382
61.54	1.10741
61.76	18.3565
61.98	0.314232
62.2	18.2517
62.42	16.893
62.64	7.55833
62.86	5.32741
63.08	11.5785
63.3	21.7134
63.52	13.0512
63.74	7.8516
63.96	4.36462
64.18	4.10083
64.4	14.7021
64.62	23.7154
64.84	1.61592
65.06	38.478
65.28	31.2395
65.5	32.8008
65.72	30.216
65.94	16.8772
66.16	24.1283
66.38	22.0364
66.6	18.4617
66.82	20.6133
67.04	5.39409
67.26	39.344
67.48	16.9304
67.7	23.0312
67.92	21.0343
68.14	15.5429
68.36	15.214
68.58	18.4318
68.8	11.1771
69.02	7.19801
69.24	5.47219
69.46	19.9381
69.68	27.1531
69.9	22.1688
70.12	17.2309
70.34	21.32
70.56	4.18419
70.78	12.0144
71	7.50586
71.22	9.88319
71.44	27.1143
71.66	13.512
71.88	3.45319
72.1	20.3668
72.32	22.4107
72.54	18.109
72.76	25.9352
72.98	18.9934
73.2	10.5037
73.42	11.1007
73.64	20.1412
73.86	16.0381
74.08	5.49538
74.3	13.7076
74.52	19.7939
74.74	9.0862
74.96	1.5122
75.18	14.9029
75.4	21.8481
75.62	13.2456
75.84	3.25475
76.06	9.36848
76.28	10.3478
76.5	0.63768
76.72	26.7163
76.94	19.8512
77.16	5.41979
77.38	14.3126
77.6	10.4398
77.82	28.435
78.04	0.513012
78.26	17.4762
78.48	15.8562
78.7	12.9048
78.92	14.9082
79.14	7.71931
79.36	11.9145
79.58	7.6017
79.8	18.5714
80.02	15.3202
80.24	18.1308
80.46	10.7124
80.68	22.8956
80.9	22.1401
81.12	9.42931
81.34	16.6498
81.56	15.9238
81.78	19.9026
82	2.23514
82.22	16.8819
82.44	22.1671
82.66	11.1589
82.88	20.2636
83.1	21.6002
83.32	11.1426
83.54	16.1414
83.76	12.7615
83.98	5.79047
84.2	23.6408
84.42	8.05249
84.64	1.95338
84.86	14.5558
85.08	16.06
85.3	9.15955
85.52	18.6268
85.74	0.296379
85.96	30.537
86.18	21.2746
86.4	7.38707
86.62	17.6569
86.84	6.11491
87.06	14.2493
87.28	9.60096
87.5	7.1353
87.72	25.9169
87.94	6.28803
88.16	16.2481
88.38	13.2808
88.6	1.80285
88.82	16.1386
89.04	18.4045
89.26	15.5362
89.48	4.14753
89.7	4.11672
89.92	3.45654
