Measurement: Powder, Xray Data XY Processed
Mineral: Howlite
Rruff sample: R050588
Ideal chemistry: Ca_2_B_5_SiO_9_(OH)_5_
Locality: Lake Bras d'Or, Iona, Cape Breton Island, Victoria County, Nova Scotia, Canada
Source: Rock Currier
Description: Group of tan colored tabular to prismatic single crystals
Diffraction sample description: Powder
Measured chemistry: Ca_2.01_B_5.00_Si_0.99_O_9_(OH)_5_ ; B and OH not measured but estimated by difference and charge balance.
Cell parameters: a: 12.803(1) b: 9.346(1) c: 8.6064(7) alpha: 90. beta: 104.836(6) gamma: 90. volume: 995.5(1) crystal system: monoclinic
x	intensity
5	0
5.22	5.994
5.44	26.116
5.66	4.456
5.88	0.902
6.1	9.743
6.32	11.774
6.54	16.016
6.76	5.686
6.98	17.471
7.2	37.312
7.42	9.239
7.64	8.091
7.86	4.139
8.08	5.277
8.3	13.114
8.52	14.821
8.74	6.585
8.96	11.798
9.18	1.061
9.4	0.395
9.62	3.952
9.84	2.203
10.06	7.515
10.28	6.736
10.5	2.702
10.72	5.87
10.94	9.053
11.16	7.308
11.38	6.609
11.6	0.941
11.82	3.907
12.04	10.011
12.26	6.307
12.48	0.36
12.7	5.201
12.92	10.065
13.14	2.026
13.36	4.002
13.58	2.718
13.8	4.505
14.02	7.424
14.24	113.709
14.46	14.821
14.68	29.846
14.9	6.886
15.12	6.011
15.34	0.239
15.56	0.579
15.78	1.726
16	11.735
16.22	1.991
16.44	3.07
16.66	2.034
16.88	1.074
17.1	13.133
17.32	0.172
17.54	0.261
17.76	2.222
17.98	4.034
18.2	18.056
18.42	2.026
18.64	0.019
18.86	5.233
19.08	5.112
19.3	0.148
19.52	1.572
19.74	3.449
19.96	4.34
20.18	9.15
20.4	23.905
20.62	7.63
20.84	1.926
21.06	6.462
21.28	5.002
21.5	11.914
21.72	4.747
21.94	7.658
22.16	22.858
22.38	3.563
22.6	8.418
22.82	194.377
23.04	0.604
23.26	0.037
23.48	24.005
23.7	0.167
23.92	20.487
24.14	6.526
24.36	8.519
24.58	17.198
24.8	3.493
25.02	1.587
25.24	5.841
25.46	43.83
25.68	10.893
25.9	4.006
26.12	7.212
26.34	2.155
26.56	0.346
26.78	2.391
27	4.369
27.22	0.877
27.44	4.536
27.66	3.238
27.88	0.116
28.1	5.73
28.32	9.5
28.54	2.689
28.76	98.452
28.98	18.538
29.2	5.296
29.42	1.019
29.64	54.652
29.86	8.994
30.08	3.931
30.3	9.755
30.52	64.881
30.74	5.955
30.96	22.939
31.18	6.867
31.4	38.627
31.62	2.267
31.84	0.905
32.06	5.248
32.28	16.941
32.5	0.74
32.72	6.541
32.94	6.49
33.16	0.373
33.38	2.037
33.6	2.181
33.82	31.448
34.04	6.419
34.26	12.493
34.48	2.314
34.7	16.534
34.92	3.56
35.14	4.21
35.36	3.96
35.58	3.798
35.8	9.443
36.02	0.494
36.24	20.189
36.46	2.663
36.68	22.786
36.9	14.186
37.12	2.812
37.34	2.154
37.56	1.562
37.78	9.664
38	2.145
38.22	10.975
38.44	17.885
38.66	17.353
38.88	1.098
39.1	4.828
39.32	23.679
39.54	8.08
39.76	8.757
39.98	2.511
40.2	14.279
40.42	5.278
40.64	7.125
40.86	10.139
41.08	16.754
41.3	22.785
41.52	8.965
41.74	13.953
41.96	14.22
42.18	4.168
42.4	5.146
42.62	6.087
42.84	13.785
43.06	1.897
43.28	16.927
43.5	16.604
43.72	47.229
43.94	11.842
44.16	3.572
44.38	1.336
44.6	40.883
44.82	25.876
45.04	11.909
45.26	11.195
45.48	4.08
45.7	1.055
45.92	25.334
46.14	9.367
46.36	1.418
46.58	5.764
46.8	11.442
47.02	4.054
47.24	22.038
47.46	11.339
47.68	2.995
47.9	15.949
48.12	6.972
48.34	15.108
48.56	5.249
48.78	9.964
49	5.004
49.22	7.399
49.44	12.517
49.66	6.629
49.88	4.42
50.1	13.412
50.32	3.521
50.54	5.403
50.76	21.319
50.98	18.394
51.2	5.83
51.42	8.953
51.64	14.89
51.86	25.256
52.08	7.319
52.3	8.672
52.52	2.329
52.74	0.048
52.96	3.927
53.18	10.974
53.4	4.837
53.62	15.733
53.84	15.427
54.06	2.217
54.28	17.898
54.5	0.151
54.72	6.627
54.94	6.641
55.16	11.669
55.38	2.026
55.6	2.289
55.82	17.525
56.04	8.91
56.26	4.079
56.48	2.457
56.7	0.375
56.92	7.14
57.14	5.449
57.36	2.567
57.58	4.262
57.8	9.295
58.02	1.311
58.24	4.232
58.46	9.306
58.68	6.191
58.9	14.163
59.12	6.486
59.34	8.155
59.56	12.918
59.78	4.961
60	4.174
60.22	6.286
60.44	7.281
60.66	16.357
60.88	4.383
61.1	1.359
61.32	2.374
61.54	14.471
61.76	3.515
61.98	3.34
62.2	18.754
62.42	2.506
62.64	5.704
62.86	8.725
63.08	11.767
63.3	3.919
63.52	2.942
63.74	2.082
63.96	4.945
64.18	0.236
64.4	3.268
64.62	7.163
64.84	6.087
65.06	0.174
65.28	0.913
65.5	0.012
65.72	9.591
65.94	5.413
66.16	3.759
66.38	9.011
66.6	5.909
66.82	0.049
67.04	7.163
67.26	3.218
67.48	2.112
67.7	7.542
67.92	0.854
68.14	5.045
68.36	2.31
68.58	9.466
68.8	3.56
69.02	7.463
69.24	1.391
69.46	2.205
69.68	2.183
69.9	5.073
70.12	1.013
70.34	8.84
70.56	8.546
70.78	5.343
71	15.282
71.22	0.232
71.44	0.274
71.66	5.213
71.88	3.335
72.1	9.51
72.32	8.595
72.54	0.478
72.76	4.397
72.98	3.398
73.2	1.436
73.42	4.471
73.64	4.835
73.86	5.754
74.08	2.811
74.3	10.806
74.52	1.703
74.74	1.679
74.96	2.644
75.18	10.954
75.4	10.025
75.62	10.196
75.84	3.419
76.06	14.141
76.28	7.383
76.5	4.394
76.72	3.48
76.94	0.59
77.16	6.308
77.38	4.28
77.6	8.979
77.82	8.894
78.04	2.71
78.26	2.467
78.48	6.677
78.7	6.569
78.92	2.48
79.14	11.539
79.36	8.604
79.58	7.635
79.8	1.621
80.02	3.632
80.24	7.683
80.46	3.736
80.68	7.983
80.9	3.039
81.12	3.991
81.34	5.041
81.56	3.893
81.78	6.966
82	2.948
82.22	6.093
82.44	11.076
82.66	2.04
82.88	12.057
83.1	7.697
83.32	3.483
83.54	3.437
83.76	5.332
83.98	5.295
84.2	3.237
84.42	2.262
84.64	14.088
84.86	12.088
85.08	2.362
85.3	5.268
85.52	1.275
85.74	11.187
85.96	4.094
86.18	4.269
86.4	6.389
86.62	8.413
86.84	4.383
87.06	3.455
87.28	4.396
87.5	4.139
87.72	3.372
87.94	1.535
88.16	5.56
88.38	7.57
88.6	6.429
88.82	3.187
89.04	7.278
89.26	5.31
89.48	6.094
89.7	1.825
89.92	11.538
