Measurement: Powder, Xray Data XY Processed
Mineral: Hubnerite
Rruff sample: R060900
Ideal chemistry: Mn^2+^W^6+^O_4_
Locality: near Kara-Oba Deposit, Kazakhstan
Source: Michael Scott
Description: Very dark red single crystal
Diffraction sample description: Powder
Cell parameters: a: 4.8242(5) b: 5.7565(3) c: 4.9939(8) alpha: 90 beta: 88.92(2) gamma: 90 volume: 138.66(2) crystal system: monoclinic
x	intensity
5	0
5.22	20.1264
5.44	23.1754
5.66	14.8095
5.88	14.2424
6.1	8.04667
6.32	14.3859
6.54	14.4969
6.76	11.772
6.98	12.1199
7.2	4.3424
7.42	4.05621
7.64	7.10553
7.86	5.73972
8.08	14.2789
8.3	10.0105
8.52	12.5086
8.74	8.7089
8.96	10.7035
9.18	6.77557
9.4	5.8434
9.62	7.98915
9.84	1.3014
10.06	1.16099
10.28	0.704013
10.5	3.532
10.72	1.22397
10.94	0.346968
11.16	5.22681
11.38	10.428
11.6	10.4596
11.82	3.40393
12.04	6.40693
12.26	10.3919
12.48	4.65778
12.7	4.60764
12.92	4.24059
13.14	1.02409
13.36	1.96219
13.58	11.0289
13.8	0.843925
14.02	7.64903
14.24	8.52074
14.46	6.27207
14.68	6.15433
14.9	11.1123
15.12	5.87918
15.34	73.8353
15.56	12.8082
15.78	8.94682
16	6.81645
16.22	10.4391
16.44	13.519
16.66	7.62097
16.88	3.57294
17.1	8.49015
17.32	5.26272
17.54	1.12455
17.76	14.512
17.98	4.45921
18.2	13.4526
18.42	180.421
18.64	21.589
18.86	3.45887
19.08	0.537676
19.3	5.7322
19.52	1.91527
19.74	6.17027
19.96	4.39685
20.18	1.04621
20.4	4.99582
20.62	2.83096
20.84	0.734679
21.06	10.6959
21.28	3.99002
21.5	14.8348
21.72	7.83631
21.94	9.53325
22.16	2.97843
22.38	15.1085
22.6	6.61037
22.82	10.1221
23.04	7.58346
23.26	11.1482
23.48	63.7115
23.7	73.0251
23.92	46.2601
24.14	100.936
24.36	12.4706
24.58	4.88539
24.8	8.22261
25.02	8.68061
25.24	13.4553
25.46	4.11607
25.68	6.89181
25.9	6.12188
26.12	6.40274
26.34	7.18206
26.56	3.03685
26.78	6.14418
27	13.961
27.22	10.1229
27.44	5.95528
27.66	4.39841
27.88	7.51824
28.1	6.34052
28.32	2.04637
28.54	9.97551
28.76	8.76772
28.98	0.206221
29.2	10.461
29.42	0.209249
29.64	35.6424
29.86	269.123
30.08	87.2028
30.3	304.186
30.52	38.1698
30.74	13.5185
30.96	33.2737
31.18	67.7177
31.4	8.59183
31.62	1.16518
31.84	0.769419
32.06	3.39783
32.28	5.86097
32.5	0.286756
32.72	9.70869
32.94	13.0577
33.16	1.92001
33.38	6.66718
33.6	2.63137
33.82	8.37453
34.04	9.90621
34.26	13.2284
34.48	10.6161
34.7	7.84611
34.92	4.02416
35.14	7.81629
35.36	5.61745
35.58	11.9848
35.8	26.4936
36.02	172.929
36.24	41.3801
36.46	23.6059
36.68	11.8056
36.9	14.4945
37.12	16.6047
37.34	53.2156
37.56	6.31227
37.78	10.9421
38	5.67611
38.22	10.6949
38.44	3.42451
38.66	15.4097
38.88	5.22946
39.1	9.12352
39.32	15.6381
39.54	0.7926
39.76	0.534304
39.98	9.72808
40.2	15.4045
40.42	33.3615
40.64	23.4438
40.86	81.3779
41.08	19.1794
41.3	20.9135
41.52	10.1896
41.74	10.5047
41.96	8.87694
42.18	1.08419
42.4	0.82599
42.62	0.142592
42.84	7.42892
43.06	1.89089
43.28	2.95731
43.5	0.164873
43.72	6.52707
43.94	7.35168
44.16	30.1629
44.38	12.9117
44.6	5.56706
44.82	15.9482
45.04	10.052
45.26	0.349552
45.48	5.78904
45.7	0.354719
45.92	5.72438
46.14	9.85745
46.36	2.15945
46.58	19.0215
46.8	7.90292
47.02	10.2806
47.24	12.8625
47.46	15.5508
47.68	4.42422
47.9	8.55768
48.12	21.1179
48.34	37.8985
48.56	8.16637
48.78	10.8256
49	13.4196
49.22	24.6924
49.44	23.7807
49.66	2.49519
49.88	13.8919
50.1	2.02577
50.32	8.08052
50.54	15.1373
50.76	13.301
50.98	23.7706
51.2	63.9117
51.42	38.6701
51.64	10.5208
51.86	5.68898
52.08	14.3776
52.3	43.3501
52.52	30.1929
52.74	15.0672
52.96	34.4813
53.18	48.6668
53.4	39.1339
53.62	14.3822
53.84	12.7431
54.06	5.9279
54.28	4.97043
54.5	19.8929
54.72	9.65808
54.94	21.8243
55.16	11.9039
55.38	0.867252
55.6	10.8467
55.82	3.72723
56.04	8.85426
56.26	6.73716
56.48	6.68565
56.7	1.6358
56.92	6.59413
57.14	9.53215
57.36	6.63331
57.58	21.2622
57.8	3.28797
58.02	6.49466
58.24	0.069317
58.46	11.0111
58.68	1.25345
58.9	14.4722
59.12	2.96927
59.34	5.99379
59.56	15.3379
59.78	8.51676
60	10.1978
60.22	0.295218
60.44	13.3634
60.66	28.8992
60.88	29.8756
61.1	11.9058
61.32	13.3064
61.54	11.4589
61.76	7.24818
61.98	0.257652
62.2	7.36171
62.42	13.7798
62.64	8.77191
62.86	3.58748
63.08	11.7679
63.3	8.03358
63.52	4.28776
63.74	8.75151
63.96	17.8415
64.18	13.211
64.4	17.2614
64.62	28.4932
64.84	21.0258
65.06	9.99914
65.28	7.40516
65.5	1.53085
65.72	8.56893
65.94	10.1908
66.16	2.52118
66.38	3.55606
66.6	14.8624
66.82	3.59447
67.04	10.0646
67.26	8.46237
67.48	17.2229
67.7	29.6373
67.92	25.4694
68.14	13.8635
68.36	1.80291
68.58	8.69751
68.8	2.85194
69.02	8.00642
69.24	3.92852
69.46	9.15967
69.68	9.05581
69.9	7.12336
70.12	14.7362
70.34	10.6345
70.56	1.94806
70.78	1.06868
71	17.4035
71.22	16.568
71.44	7.23872
71.66	0.858006
71.88	1.49903
72.1	4.86575
72.32	10.195
72.54	12.5127
72.76	13.8569
72.98	5.89155
73.2	8.85091
73.42	10.6105
73.64	12.6376
73.86	9.77446
74.08	10.6986
74.3	1.42364
74.52	5.94272
74.74	5.09987
74.96	7.04634
75.18	7.83551
75.4	4.68393
75.62	9.51694
75.84	0.20642
76.06	10.027
76.28	11.21
76.5	7.6512
76.72	0.645596
76.94	5.54008
77.16	0.398611
77.38	20.1087
77.6	16.6502
77.82	14.4786
78.04	2.913
78.26	9.54618
78.48	10.4452
78.7	9.37472
78.92	8.27167
79.14	15.1843
79.36	9.96804
79.58	17.7934
79.8	28.5922
80.02	17.7455
80.24	10.7016
80.46	9.75334
80.68	10.2431
80.9	3.82364
81.12	4.46329
81.34	8.84784
81.56	14.2368
81.78	11.7997
82	4.03486
82.22	6.45729
82.44	4.30458
82.66	3.47401
82.88	11.3294
83.1	6.31077
83.32	1.98842
83.54	4.67422
83.76	6.51275
83.98	15.3493
84.2	1.25252
84.42	8.2718
84.64	12.905
84.86	5.66167
85.08	10.5436
85.3	4.70704
85.52	1.62828
85.74	1.10718
85.96	0.244627
86.18	6.50996
86.4	3.37206
86.62	19.8434
86.84	1.59057
87.06	14.12
87.28	16.3279
87.5	9.08899
87.72	11.2857
87.94	8.2294
88.16	4.45588
88.38	14.6097
88.6	8.37181
88.82	7.93863
89.04	8.04109
89.26	12.6821
89.48	6.4879
89.7	16.2829
89.92	3.36109
