Measurement: Powder, Xray Data XY Processed
Mineral: Humberstonite
Rruff sample: R060718
Ideal chemistry: K_3_Na_7_Mg_2_(S^6+^O_4_)_6_(N^5+^O_3_)_2_6H_2_O
Locality: Officina Alemania, Antofagasta Province, Chile
Source: Bob Jenkins
Description: Mass of colorless grains
Diffraction sample description: Powder
Cell parameters: a: 10.9109(4) b: 10.9109(4) c: 24.393(1) alpha: 90. beta: 90. gamma: 120. volume: 2514.9(1) crystal system: hexagonal
x	intensity
5	0
5.22	4.55706
5.44	0.744853
5.66	12.4878
5.88	16.4312
6.1	4.67164
6.32	10.5667
6.54	14.9124
6.76	6.20849
6.98	7.66715
7.2	8.22909
7.42	2.80441
7.64	5.70971
7.86	6.53593
8.08	0.005173
8.3	4.55487
8.52	2.76212
8.74	8.55453
8.96	3.23197
9.18	1.20259
9.4	5.3663
9.62	1.13252
9.84	22.6073
10.06	177.224
10.28	2.4652
10.5	8.73789
10.72	23.492
10.94	530.629
11.16	7.1454
11.38	4.54667
11.6	5.05481
11.82	36.4458
12.04	8.96101
12.26	3.68318
12.48	3.11513
12.7	8.41539
12.92	1.14377
13.14	9.62306
13.36	2.95309
13.58	2.21735
13.8	1.36269
14.02	6.9215
14.24	4.89657
14.46	2.99575
14.68	9.92535
14.9	7.89454
15.12	3.82995
15.34	6.17662
15.56	6.20474
15.78	3.09728
16	5.01378
16.22	18.8333
16.44	5.56453
16.66	1.48691
16.88	5.56238
17.1	9.55376
17.32	10.7499
17.54	3.88046
17.76	2.10755
17.98	5.13081
18.2	5.02299
18.42	5.92231
18.64	5.89773
18.86	2.28005
19.08	5.64659
19.3	9.34862
19.52	15.3641
19.74	22.5865
19.96	5.45196
20.18	94.1449
20.4	5.09418
20.62	1.90367
20.84	2.06568
21.06	2.0427
21.28	4.02113
21.5	8.09638
21.72	29.0987
21.94	176.774
22.16	0.18275
22.38	2.97082
22.6	6.89313
22.82	1.92963
23.04	6.95918
23.26	6.3202
23.48	6.32171
23.7	17.4562
23.92	46.4002
24.14	1.35484
24.36	2.22636
24.58	4.76127
24.8	0.555685
25.02	4.17943
25.24	13.8988
25.46	0.362466
25.68	3.11376
25.9	5.2262
26.12	30.7405
26.34	317.545
26.56	6.69822
26.78	5.55864
27	0.509851
27.22	20.5415
27.44	32.0445
27.66	9.20601
27.88	7.31516
28.1	2.19846
28.32	8.31628
28.54	11.4026
28.76	4.48999
28.98	25.6853
29.2	6.01277
29.42	4.78043
29.64	6.63212
29.86	0.974716
30.08	2.60492
30.3	10.7126
30.52	32.3479
30.74	63.9522
30.96	64.6235
31.18	20.3062
31.4	2.04407
31.62	8.46609
31.84	37.3704
32.06	18.3818
32.28	1.62903
32.5	9.99602
32.72	8.05466
32.94	111.339
33.16	14.1867
33.38	5.48086
33.6	4.68161
33.82	4.60922
34.04	0.234031
34.26	2.22871
34.48	14.3123
34.7	112.438
34.92	29.2624
35.14	54.9682
35.36	4.04421
35.58	7.54275
35.8	5.79007
36.02	20.0266
36.24	8.09145
36.46	3.17505
36.68	4.13605
36.9	3.16582
37.12	3.00976
37.34	22.0845
37.56	6.15727
37.78	1.75989
38	14.3164
38.22	17.2282
38.44	4.21176
38.66	3.81834
38.88	8.86585
39.1	12.9853
39.32	13.0922
39.54	4.18431
39.76	3.74244
39.98	6.07845
40.2	5.04911
40.42	8.01237
40.64	0.148331
40.86	11.8642
41.08	40.5356
41.3	7.55448
41.52	7.18701
41.74	10.1489
41.96	4.01029
42.18	6.81735
42.4	2.14539
42.62	13.0654
42.84	0.880802
43.06	2.7053
43.28	2.21266
43.5	4.69168
43.72	11.5299
43.94	26.4041
44.16	15.4757
44.38	18.3702
44.6	86.3367
44.82	17.4441
45.04	11.7619
45.26	7.08656
45.48	7.28698
45.7	2.90414
45.92	6.37884
46.14	1.54574
46.36	6.65615
46.58	8.46431
46.8	1.54893
47.02	3.65274
47.24	12.2454
47.46	10.0263
47.68	4.82849
47.9	17.8488
48.12	11.2776
48.34	6.27854
48.56	5.32555
48.78	103.752
49	13.0282
49.22	4.15275
49.44	9.544
49.66	11.6949
49.88	2.19129
50.1	3.57615
50.32	1.40551
50.54	0.592164
50.76	6.65198
50.98	1.76054
51.2	10.3704
51.42	5.22879
51.64	8.98247
51.86	6.11528
52.08	3.04623
52.3	3.6806
52.52	17.4814
52.74	5.67464
52.96	3.68956
53.18	1.70912
53.4	12.9425
53.62	16.979
53.84	9.99999
54.06	10.8389
54.28	7.44554
54.5	0.324358
54.72	15.7246
54.94	6.70789
55.16	4.50502
55.38	10.5773
55.6	4.59999
55.82	3.40061
56.04	10.7962
56.26	9.11414
56.48	15.2536
56.7	9.48136
56.92	1.67624
57.14	4.51605
57.36	7.66667
57.58	0.325724
57.8	1.59965
58.02	1.54424
58.24	3.71809
58.46	0.494313
58.68	10.2112
58.9	10.1458
59.12	11.0244
59.34	1.67451
59.56	2.27818
59.78	15.2406
60	30.5932
60.22	12.8227
60.44	2.00201
60.66	7.64688
60.88	2.75101
61.1	0.108158
61.32	7.1622
61.54	7.17754
61.76	8.95648
61.98	8.98993
62.2	9.0938
62.42	2.81031
62.64	7.7594
62.86	0.014233
63.08	1.03997
63.3	2.02572
63.52	0.762442
63.74	1.77637
63.96	7.86411
64.18	14.0544
64.4	5.84043
64.62	6.71165
64.84	5.65406
65.06	3.5275
65.28	3.24627
65.5	7.39153
65.72	13.367
65.94	7.36047
66.16	5.57311
66.38	1.59612
66.6	7.45637
66.82	3.59039
67.04	7.71002
67.26	2.02924
67.48	3.19836
67.7	0.150676
67.92	0.972638
68.14	2.96666
68.36	2.99611
68.58	4.78978
68.8	14.7641
69.02	9.84808
69.24	9.82445
69.46	12.0384
69.68	1.09236
69.9	7.10887
70.12	8.27818
70.34	4.47912
70.56	1.0145
70.78	7.09274
71	1.38432
71.22	6.44457
71.44	3.37695
71.66	3.59039
71.88	6.05943
72.1	6.98396
72.32	0.907859
72.54	8.1081
72.76	2.97438
72.98	3.60967
73.2	12.5101
73.42	19.2361
73.64	3.1823
73.86	10.1076
74.08	7.16781
74.3	3.15918
74.52	6.2624
74.74	1.55816
74.96	8.29491
75.18	3.37457
75.4	7.30144
75.62	2.42149
75.84	4.47349
76.06	0.622748
76.28	5.4363
76.5	12.5105
76.72	0.259957
76.94	6.77672
77.16	8.49561
77.38	4.39682
77.6	8.35185
77.82	1.34782
78.04	0.73846
78.26	6.16859
78.48	6.05535
78.7	8.95688
78.92	4.70138
79.14	0.596714
79.36	6.71211
79.58	7.71512
79.8	11.848
80.02	2.95103
80.24	1.01235
80.46	0.075507
80.68	2.19898
80.9	1.60293
81.12	4.71291
81.34	0.901547
81.56	7.15841
81.78	5.08824
82	4.12451
82.22	0.080218
82.44	4.05528
82.66	10.0203
82.88	7.93261
83.1	3.12327
83.32	4.12883
83.54	4.9005
83.76	1.65967
83.98	16.2706
84.2	4.35505
84.42	0.691156
84.64	2.34833
84.86	5.20147
85.08	5.09567
85.3	7.10676
85.52	2.25872
85.74	1.51063
85.96	2.58936
86.18	7.49273
86.4	1.53515
86.62	4.33162
86.84	6.51251
87.06	5.49612
87.28	4.58024
87.5	1.69026
87.72	2.86235
87.94	9.05552
88.16	3.14871
88.38	4.20057
88.6	3.41094
88.82	12.5604
89.04	3.45935
89.26	3.62472
89.48	3.68749
89.7	5.93761
89.92	5.18671
