Measurement: Powder, Xray Data XY Processed
Mineral: Hureaulite
Rruff sample: R070452
Ideal chemistry: Mn^2+^_5_(P^5+^O_4_)_2_(P^5+^O_3_OH)_2_4H_2_O
Locality: Tip Top mine, Fourmile, Custer District, Custer County, South Dakota, USA
Source: Michael Scott
Description: Massive coarse pink granular
Diffraction sample description: Powder
Measured chemistry: (Mn^2+^_3.83_Fe^2+^_0.62_Mg_0.33_Ca_0.22_)_Σ=5_(P_1.00_O_4_)_2_(P_1.00_O_3_OH)_2_·4H_2_O; H_2_O estimated by difference; OH by charge balance
Cell parameters: a: 17.610(1) b: 9.1093(9) c: 9.4906(9) alpha: 90 beta: 96.600(8) gamma: 90 volume: 1512.4(2) crystal system: monoclinic
x	intensity
5	0
5.22	17.9593
5.44	22.213
5.66	26.7048
5.88	27.7418
6.1	2.79528
6.32	12.9987
6.54	8.81913
6.76	20.5748
6.98	15.8253
7.2	13.7378
7.42	19.265
7.64	19.0188
7.86	15.081
8.08	30.4292
8.3	17.764
8.52	24.3048
8.74	17.5553
8.96	27.1016
9.18	12.3176
9.4	18.4841
9.62	11.4189
9.84	14.918
10.06	107.233
10.28	6.75436
10.5	33.7251
10.72	41.9717
10.94	301.874
11.16	25.3656
11.38	2.60659
11.6	1.96407
11.82	5.18413
12.04	23.5218
12.26	20.2047
12.48	13.4983
12.7	12.5845
12.92	20.6751
13.14	5.03555
13.36	3.63638
13.58	18.3227
13.8	37.3269
14.02	21.151
14.24	26.4773
14.46	27.0492
14.68	14.9741
14.9	27.0992
15.12	4.70439
15.34	7.7726
15.56	18.4527
15.78	18.6565
16	9.03204
16.22	19.1731
16.44	16.4791
16.66	31.3769
16.88	0.249443
17.1	44.5198
17.32	10.7282
17.54	11.208
17.76	15.4868
17.98	20.8583
18.2	10.5489
18.42	13.3611
18.64	1.75348
18.86	55.1657
19.08	6.19871
19.3	29.7139
19.52	48.6432
19.74	10.1833
19.96	20.1596
20.18	15.484
20.4	23.1554
20.62	13.2589
20.84	21.164
21.06	3.30578
21.28	1.26487
21.5	37.0771
21.72	35.4118
21.94	45.9497
22.16	10.1519
22.38	25.9977
22.6	13.4146
22.82	24.3602
23.04	20.4794
23.26	8.62953
23.48	43.7386
23.7	26.3537
23.92	44.1837
24.14	18.1072
24.36	38.482
24.58	16.6689
24.8	21.2016
25.02	9.47618
25.24	18.3654
25.46	16.9587
25.68	16.07
25.9	18.5744
26.12	54.4752
26.34	12.9078
26.56	24.504
26.78	7.38315
27	18.2682
27.22	65.4586
27.44	87.6174
27.66	20.6144
27.88	52.1653
28.1	7.02639
28.32	218.784
28.54	35.4463
28.76	6.62907
28.98	17.4327
29.2	25.1444
29.42	34.9617
29.64	9.30244
29.86	157.288
30.08	9.76308
30.3	6.07606
30.52	1.60699
30.74	49.772
30.96	42.0588
31.18	57.0429
31.4	0.989761
31.62	29.1951
31.84	7.19837
32.06	33.196
32.28	39.3001
32.5	14.2305
32.72	32.742
32.94	14.369
33.16	15.9519
33.38	17.5952
33.6	2.75052
33.82	13.7937
34.04	70.3068
34.26	41.3374
34.48	17.8893
34.7	32.7832
34.92	26.3365
35.14	51.3801
35.36	24.6028
35.58	16.9818
35.8	18.9011
36.02	10.2122
36.24	17.5187
36.46	20.7223
36.68	4.73949
36.9	41.265
37.12	18.4632
37.34	23.8903
37.56	24.1149
37.78	3.57355
38	18.7134
38.22	28.9278
38.44	14.7164
38.66	14.0617
38.88	12.6207
39.1	32.2791
39.32	14.3127
39.54	8.86461
39.76	33.1861
39.98	13.7279
40.2	22.6779
40.42	28.9851
40.64	11.9253
40.86	14.3296
41.08	5.06903
41.3	58.5032
41.52	20.3576
41.74	9.06193
41.96	16.3797
42.18	42.5083
42.4	37.1395
42.62	11.5637
42.84	9.51568
43.06	43.527
43.28	0.53109
43.5	2.75237
43.72	30.9845
43.94	12.6423
44.16	25.073
44.38	16.3265
44.6	12.883
44.82	10.7994
45.04	12.2197
45.26	7.43971
45.48	6.09799
45.7	20.0642
45.92	5.87241
46.14	20.3226
46.36	20.975
46.58	9.87261
46.8	14.9135
47.02	24.5333
47.24	44.6836
47.46	35.0386
47.68	26.978
47.9	21.9911
48.12	3.80766
48.34	3.24064
48.56	2.01301
48.78	10.5212
49	2.76652
49.22	33.3334
49.44	24.3153
49.66	26.4092
49.88	39.4631
50.1	12.4592
50.32	19.3385
50.54	1.69585
50.76	5.29529
50.98	20.5745
51.2	11.1352
51.42	24.469
51.64	11.9005
51.86	7.19273
52.08	19.6645
52.3	2.56827
52.52	29.1072
52.74	12.9346
52.96	23.0127
53.18	8.13946
53.4	12.8323
53.62	33.4869
53.84	35.2449
54.06	13.3221
54.28	17.3333
54.5	18.9719
54.72	9.40188
54.94	16.803
55.16	8.90424
55.38	22.9107
55.6	32.2821
55.82	7.28835
56.04	48.2295
56.26	25.6509
56.48	12.4333
56.7	8.02032
56.92	4.5345
57.14	16.9949
57.36	12.8918
57.58	13.9792
57.8	34.6588
58.02	37.2669
58.24	45.3436
58.46	23.9019
58.68	29.3585
58.9	44.5485
59.12	26.522
59.34	3.89319
59.56	15.3246
59.78	18.2988
60	19.4586
60.22	9.39771
60.44	28.2786
60.66	12.9024
60.88	9.19775
61.1	19.7829
61.32	2.69634
61.54	18.9413
61.76	7.29317
61.98	13.1267
62.2	9.98202
62.42	20.1051
62.64	2.81451
62.86	12.4482
63.08	23.5029
63.3	7.65353
63.52	28.1298
63.74	22.4264
63.96	26.5535
64.18	7.94144
64.4	24.7978
64.62	17.4066
64.84	13.4602
65.06	31.6924
65.28	15.304
65.5	4.21567
65.72	1.08601
65.94	33.8534
66.16	21.8082
66.38	2.43856
66.6	13.1255
66.82	21.2973
67.04	22.7266
67.26	2.89996
67.48	29.6414
67.7	30.3169
67.92	9.67374
68.14	51.1396
68.36	26.6338
68.58	9.31578
68.8	20.2273
69.02	21.9008
69.24	13.7289
69.46	34.2473
69.68	28.1469
69.9	3.7235
70.12	17.5708
70.34	15.7923
70.56	4.74165
70.78	28.4246
71	23.0186
71.22	21.2063
71.44	17.6752
71.66	11.4192
71.88	13.1527
72.1	7.69701
72.32	11.1777
72.54	18.8079
72.76	9.39295
72.98	17.5274
73.2	12.376
73.42	17.7704
73.64	20.7038
73.86	21.8766
74.08	17.0238
74.3	15.8837
74.52	32.4062
74.74	7.06377
74.96	30.3654
75.18	10.4602
75.4	3.66355
75.62	16.5715
75.84	24.0473
76.06	16.678
76.28	14.9386
76.5	15.153
76.72	26.3794
76.94	14.0246
77.16	1.64296
77.38	16.5102
77.6	12.3482
77.82	9.90556
78.04	16.2383
78.26	19.4273
78.48	21.2469
78.7	13.2643
78.92	31.2905
79.14	31.5365
79.36	6.66756
79.58	8.84428
79.8	12.7081
80.02	1.04496
80.24	26.5754
80.46	16.5761
80.68	7.3475
80.9	7.08698
81.12	28.7659
81.34	18.1015
81.56	6.30702
81.78	18.9705
82	20.2854
82.22	16.5747
82.44	22.4241
82.66	3.23441
82.88	3.03373
83.1	28.4236
83.32	5.71274
83.54	20.1568
83.76	23.065
83.98	4.68486
84.2	2.30885
84.42	26.6288
84.64	26.5992
84.86	19.4621
85.08	23.6146
85.3	17.9132
85.52	13.0337
85.74	15.0756
85.96	0.612038
86.18	7.62161
86.4	32.1637
86.62	14.3813
86.84	4.64523
87.06	24.0339
87.28	11.4808
87.5	9.56818
87.72	20.2322
87.94	12.8225
88.16	10.8725
88.38	14.9161
88.6	31.5893
88.82	15.3942
89.04	15.5104
89.26	13.5391
89.48	12.4496
89.7	17.9168
89.92	20.2295
