Measurement: Powder, Xray Data XY Processed
Mineral: Hydrokenoralstonite
Rruff sample: R060012
Ideal chemistry: [box]_2_Al_2_F_6_(H_2_O)
Locality: Ivigtut, Greenland
Source: University of Arizona Mineral Museum
Description: Colorless octahedral ralstonite stained with iron oxide, associated with thomsenolite
Diffraction sample description: Single crystal, powder profile is calculated
Measured chemistry: Na_0.70_Mg_0.70_Al_1.30_(F_4.18_(OH)_1.82_)_Σ=6_·H_2_O
Cell parameters: a: 9.903(2) b: 9.903(2) c: 9.903(2) alpha: 90 beta: 90 gamma: 90 volume: 971.1(1) crystal system: cubic
x	intensity
5	0
5.22	0
5.44	0
5.66	0
5.88	0
6.1	0
6.32	0
6.54	0
6.76	0
6.98	0
7.2	0
7.42	0
7.64	0
7.86	0
8.08	0
8.3	0
8.52	0
8.74	0
8.96	0
9.18	0
9.4	0
9.62	0
9.84	0
10.06	0
10.28	0
10.5	0
10.72	0
10.94	0
11.16	0
11.38	0
11.6	0
11.82	0
12.04	0
12.26	0
12.48	0
12.7	0
12.92	0
13.14	0
13.36	0
13.58	0
13.8	0
14.02	0
14.24	0
14.46	0
14.68	0
14.9	0
15.12	0
15.34	0
15.56	19.542
15.78	0
16	0
16.22	0
16.44	0
16.66	0
16.88	0
17.1	0
17.32	0
17.54	0
17.76	0
17.98	0
18.2	0
18.42	0
18.64	0
18.86	0
19.08	0
19.3	0
19.52	0
19.74	0
19.96	0
20.18	0
20.4	0
20.62	0
20.84	0
21.06	0
21.28	0
21.5	0
21.72	0
21.94	0
22.16	0
22.38	0
22.6	0
22.82	0
23.04	0
23.26	0
23.48	0
23.7	0
23.92	0
24.14	0
24.36	0
24.58	0
24.8	0
25.02	0
25.24	0
25.46	0.026
25.68	0
25.9	0
26.12	0
26.34	0
26.56	0
26.78	0
27	0
27.22	0
27.44	0
27.66	0
27.88	0
28.1	0
28.32	0
28.54	0
28.76	0
28.98	0
29.2	0
29.42	0
29.64	0
29.86	14.208
30.08	0.043
30.3	0
30.52	0
30.74	0
30.96	0
31.18	0.752
31.4	2.256
31.62	0
31.84	0
32.06	0
32.28	0
32.5	0
32.72	0
32.94	0
33.16	0
33.38	0
33.6	0
33.82	0
34.04	0
34.26	0
34.48	0
34.7	0
34.92	0
35.14	0
35.36	0
35.58	0
35.8	0
36.02	0
36.24	1.97
36.46	0.002
36.68	0
36.9	0
37.12	0
37.34	0
37.56	0
37.78	0
38	0
38.22	0
38.44	0
38.66	0
38.88	0
39.1	0
39.32	0
39.54	0.051
39.76	2.337
39.98	0
40.2	0
40.42	0
40.64	0
40.86	0
41.08	0
41.3	0
41.52	0
41.74	0
41.96	0
42.18	0
42.4	0
42.62	0
42.84	0
43.06	0
43.28	0
43.5	0
43.72	0
43.94	0
44.16	0
44.38	0
44.6	0
44.82	8.109
45.04	0.005
45.26	0
45.48	0
45.7	0
45.92	0
46.14	0
46.36	0
46.58	0
46.8	0
47.02	0
47.24	0
47.46	0
47.68	17.53
47.9	0.174
48.12	0
48.34	0
48.56	0
48.78	0
49	0
49.22	0
49.44	0
49.66	0
49.88	0
50.1	0
50.32	0
50.54	0
50.76	0
50.98	0
51.2	0
51.42	0
51.64	0
51.86	0
52.08	0.015
52.3	4.576
52.52	0
52.74	0
52.96	0
53.18	0
53.4	0
53.62	0
53.84	0
54.06	0
54.28	0
54.5	0
54.72	0.328
54.94	2.134
55.16	0
55.38	0
55.6	0.001
55.82	0
56.04	0
56.26	0
56.48	0
56.7	0
56.92	0
57.14	0
57.36	0
57.58	0
57.8	0
58.02	0
58.24	0
58.46	0
58.68	0
58.9	1.864
59.12	1.542
59.34	0
59.56	0
59.78	0
60	0
60.22	0
60.44	0
60.66	0
60.88	0
61.1	0
61.32	4.264
61.54	1.663
61.76	0
61.98	0.002
62.2	1.136
62.42	0.014
62.64	0
62.86	0
63.08	0
63.3	0
63.52	0
63.74	0
63.96	0
64.18	0
64.4	0
64.62	0
64.84	0
65.06	0
65.28	0.437
65.5	0.024
65.72	0
65.94	0
66.16	0
66.38	0
66.6	0
66.82	0
67.04	0
67.26	0
67.48	7.101
67.7	3.294
67.92	0
68.14	0
68.36	0
68.58	0
68.8	0
69.02	0
69.24	0
69.46	0
69.68	0
69.9	0
70.12	0
70.34	0
70.56	0
70.78	0
71	0
71.22	0.072
71.44	0.025
71.66	0
71.88	0
72.1	0
72.32	0
72.54	0
72.76	0
72.98	0
73.2	0
73.42	2.844
73.64	1.119
73.86	0
74.08	0
74.3	0
74.52	0
74.74	0
74.96	0
75.18	0
75.4	0
75.62	0
75.84	0
76.06	0
76.28	0
76.5	0
76.72	0
76.94	1.695
77.16	0.751
77.38	0
77.6	0
77.82	0
78.04	0
78.26	0
78.48	0
78.7	0
78.92	0
79.14	0.194
79.36	0.147
79.58	0
79.8	0
80.02	0
80.24	0
80.46	0
80.68	0
80.9	0
81.12	0
81.34	0
81.56	0
81.78	0
82	0
82.22	0
82.44	0.001
82.66	1.403
82.88	1.608
83.1	0
83.32	0
83.54	0
83.76	0
83.98	0
84.2	0
84.42	0
84.64	0.132
84.86	0.011
85.08	0.001
85.3	0.205
85.52	0.019
85.74	0.117
85.96	0
86.18	0
86.4	0
86.62	0
86.84	0
87.06	0
87.28	0
87.5	0
87.72	0
87.94	0
88.16	1.842
88.38	0.282
88.6	0.001
88.82	0
89.04	0
89.26	0
89.48	0
89.7	0
89.92	0
