Measurement: Powder, Xray Data XY Processed
Mineral: Hydroxylapatite
Rruff sample: R050512
Ideal chemistry: Ca_5_(P^5+^O_4_)_3_OH
Locality: Moneta Island, Mayeguez, Puerto Rico, USA
Source: American Museum of Natural History
Description: Pale pink consolidated powder
Diffraction sample description: Powder
Measured chemistry: Ca_5.00_(PO_4_)_3_((OH)_0.67_F_0.33_)
Cell parameters: a: 9.4377(6) b: 9.4377(6) c: 6.8756(6) alpha: 90 beta: 90 gamma: 120 volume: 530.37(7) crystal system: hexagonal
x	intensity
5	0
5.22	6.898
5.44	10.826
5.66	8.601
5.88	4.114
6.1	14.09
6.32	4.336
6.54	9.778
6.76	9.549
6.98	17.323
7.2	6.901
7.42	7.318
7.64	0.534
7.86	7.111
8.08	6.766
8.3	2.488
8.52	1.089
8.74	0.742
8.96	8.302
9.18	10.8
9.4	11.2
9.62	0.724
9.84	0.938
10.06	9.755
10.28	2.64
10.5	0.224
10.72	7.873
10.94	11.042
11.16	11.279
11.38	3.299
11.6	4.868
11.82	6.989
12.04	2.326
12.26	4.833
12.48	0.054
12.7	3.395
12.92	8.276
13.14	4.262
13.36	2.152
13.58	2.91
13.8	9.821
14.02	1.44
14.24	3.659
14.46	8.677
14.68	10.021
14.9	2.916
15.12	0.936
15.34	5.222
15.56	4.308
15.78	4.256
16	8.054
16.22	4.156
16.44	1.068
16.66	13.071
16.88	8.037
17.1	8.888
17.32	8.917
17.54	4.824
17.76	7.472
17.98	4.379
18.2	4.564
18.42	2.431
18.64	2.192
18.86	8.189
19.08	12.821
19.3	6.844
19.52	8.59
19.74	3.396
19.96	2.222
20.18	13.462
20.4	3.399
20.62	14.737
20.84	13.307
21.06	7.855
21.28	0.601
21.5	2.845
21.72	7.249
21.94	3.044
22.16	12.986
22.38	5.969
22.6	5.157
22.82	21.979
23.04	0.161
23.26	1.263
23.48	10.891
23.7	0.01
23.92	9.965
24.14	9.091
24.36	0.772
24.58	3.363
24.8	1.15
25.02	0.643
25.24	16.463
25.46	0.375
25.68	5.18
25.9	66.612
26.12	12.486
26.34	11.634
26.56	3.965
26.78	4.894
27	3.762
27.22	2.653
27.44	2.995
27.66	5.844
27.88	19.441
28.1	11.261
28.32	5.438
28.54	2.387
28.76	20.73
28.98	18.607
29.2	8.344
29.42	8.763
29.64	8.433
29.86	8.721
30.08	0.68
30.3	0.653
30.52	10.29
30.74	1.75
30.96	2.002
31.18	11.385
31.4	6.76
31.62	29.825
31.84	93.569
32.06	30.107
32.28	41.608
32.5	13.324
32.72	27.368
32.94	61.305
33.16	4.716
33.38	0.753
33.6	1.118
33.82	0.252
34.04	33.015
34.26	6.987
34.48	7.973
34.7	7.286
34.92	5.193
35.14	7.925
35.36	13.984
35.58	10.542
35.8	15.309
36.02	6.823
36.24	3.896
36.46	0.758
36.68	9.414
36.9	6.749
37.12	6.865
37.34	2.694
37.56	9.566
37.78	0.612
38	1.305
38.22	2.93
38.44	3.439
38.66	4.835
38.88	1.44
39.1	8.036
39.32	4.805
39.54	15.793
39.76	23.856
39.98	4.931
40.2	3.167
40.42	1.704
40.64	3.02
40.86	5.329
41.08	2.626
41.3	3.244
41.52	7.528
41.74	10.175
41.96	15.984
42.18	8.886
42.4	2.918
42.62	0.221
42.84	0.591
43.06	1.371
43.28	8.404
43.5	6.453
43.72	13.296
43.94	11.062
44.16	1.405
44.38	15.345
44.6	5.472
44.82	4.289
45.04	6.291
45.26	8.294
45.48	0.165
45.7	7.914
45.92	4.602
46.14	4.644
46.36	6.445
46.58	16.525
46.8	25.233
47.02	2.619
47.24	2.435
47.46	3.652
47.68	5.752
47.9	10.101
48.12	10.96
48.34	4.749
48.56	7.044
48.78	8.815
49	2.046
49.22	0.036
49.44	26.866
49.66	22.993
49.88	12.042
50.1	6.717
50.32	12.226
50.54	5.103
50.76	0.526
50.98	3.846
51.2	19.193
51.42	4.523
51.64	2.424
51.86	4.989
52.08	13.208
52.3	4.526
52.52	7.934
52.74	2.118
52.96	5.034
53.18	21.476
53.4	6.101
53.62	4.178
53.84	2.953
54.06	0.924
54.28	8.26
54.5	1.453
54.72	0.4
54.94	6.835
55.16	7.182
55.38	5.201
55.6	1.287
55.82	9.224
56.04	2.232
56.26	8.197
56.48	2.06
56.7	0.633
56.92	1.222
57.14	4.19
57.36	5.504
57.58	0.208
57.8	6.161
58.02	6.121
58.24	3.076
58.46	7.049
58.68	9.812
58.9	6.806
59.12	6.6
59.34	4.58
59.56	3.762
59.78	7.438
60	5.05
60.22	11.016
60.44	6.815
60.66	1.624
60.88	7.541
61.1	8.498
61.32	5.455
61.54	9.673
61.76	4.657
61.98	6.205
62.2	3.578
62.42	1.431
62.64	7.191
62.86	1.932
63.08	8.775
63.3	5.724
63.52	0.336
63.74	6.253
63.96	1.902
64.18	12.05
64.4	5.517
64.62	11.922
64.84	14.906
65.06	9.307
65.28	0.367
65.5	0.954
65.72	3.128
65.94	5.354
66.16	2.926
66.38	2.207
66.6	5.429
66.82	5.532
67.04	1.883
67.26	5.867
67.48	2.024
67.7	3.156
67.92	4.351
68.14	2.371
68.36	4.064
68.58	0.052
68.8	3.256
69.02	4.169
69.24	0.55
69.46	3.934
69.68	6.858
69.9	9.022
70.12	1.054
70.34	4.912
70.56	7.793
70.78	1.772
71	5.539
71.22	0.526
71.44	2.502
71.66	6.69
71.88	2.639
72.1	7.808
72.32	6.68
72.54	2.546
72.76	0.531
72.98	0.639
73.2	0.505
73.42	3.63
73.64	8.825
73.86	8.588
74.08	7.454
74.3	5.428
74.52	2.233
74.74	1.222
74.96	5.208
75.18	3.325
75.4	3.345
75.62	7.324
75.84	12.186
76.06	5.732
76.28	1.821
76.5	0.93
76.72	3.79
76.94	4.733
77.16	7.743
77.38	8.845
77.6	2.005
77.82	3.448
78.04	5.519
78.26	7.793
78.48	7.223
78.7	3.336
78.92	3.354
79.14	1.65
79.36	3.821
79.58	4.061
79.8	5.066
80.02	2.98
80.24	0.869
80.46	5.892
80.68	5.773
80.9	1.708
81.12	4.611
81.34	3.811
81.56	2.716
81.78	0.851
82	0.75
82.22	4.766
82.44	1.724
82.66	3.598
82.88	4.731
83.1	2.668
83.32	2.498
83.54	5.537
83.76	4.388
83.98	7.518
84.2	2.325
84.42	5.436
84.64	1.363
84.86	7.436
85.08	2.606
85.3	7.504
85.52	1.785
85.74	6.964
85.96	4.129
86.18	1.15
86.4	0.974
86.62	3.036
86.84	2.96
87.06	3.031
87.28	7.813
87.5	4.691
87.72	2.706
87.94	6.665
88.16	2.801
88.38	5.946
88.6	4.969
88.82	3.219
89.04	5.53
89.26	4.924
89.48	5.525
89.7	2.262
89.92	2.354
