Measurement: Powder, Xray Data XY Processed
Mineral: Hydroxylherderite
Rruff sample: R070451
Ideal chemistry: CaBe(P^5+^O_4_)(OH)
Locality: Fletcher mine, Groton, Grafton County, New Hampshire, USA
Source: Michael Scott
Description: Brownish green prismatic crystal
Diffraction sample description: Powder
Measured chemistry: Ca_1.00_Be_1.00_P_1.00_O_4_((OH)_0.80_F_0.20_)_Î£=1_; trace amounts of Al; OH estimated by charge balance; BeO by difference
Cell parameters: a: 9.7980(3) b: 7.6558(2) c: 4.8110(1) alpha: 90 beta: 89.935(2) gamma: 90 volume: 360.89(1) crystal system: monoclinic
x	intensity
5	0
5.22	19.4955
5.44	16.3156
5.66	0.074051
5.88	3.05666
6.1	7.19881
6.32	2.70792
6.54	11.9806
6.76	14.2634
6.98	4.95854
7.2	5.43497
7.42	5.91609
7.64	10.3461
7.86	6.78233
8.08	3.34199
8.3	13.7406
8.52	7.05683
8.74	6.5853
8.96	9.76506
9.18	5.00511
9.4	11.9993
9.62	10.9569
9.84	10.3918
10.06	8.77794
10.28	3.07461
10.5	9.13363
10.72	6.40522
10.94	3.86613
11.16	0.025742
11.38	5.94656
11.6	2.0446
11.82	9.11362
12.04	3.18903
12.26	11
12.48	0.190846
12.7	5.7488
12.92	8.69642
13.14	13.5781
13.36	1.48127
13.58	10.386
13.8	12.373
14.02	2.63209
14.24	7.70252
14.46	4.89848
14.68	115.989
14.9	3.93896
15.12	0.273767
15.34	5.368
15.56	4.06164
15.78	15.0709
16	1.09727
16.22	10.0737
16.44	8.87736
16.66	3.71219
16.88	8.38437
17.1	7.12801
17.32	7.98873
17.54	0.692133
17.76	13.6754
17.98	5.7701
18.2	3.94135
18.42	66.9986
18.64	8.78632
18.86	8.10985
19.08	1.61226
19.3	11.145
19.52	4.3331
19.74	9.5183
19.96	4.47465
20.18	6.50108
20.4	2.43467
20.62	4.46998
20.84	4.38314
21.06	6.45616
21.28	10.4352
21.5	21.3189
21.72	4.24388
21.94	10.1381
22.16	9.06318
22.38	9.02617
22.6	0.028721
22.82	3.8557
23.04	9.85599
23.26	29.2358
23.48	10.2187
23.7	122.047
23.92	4.879
24.14	5.79329
24.36	10.7751
24.58	2.62783
24.8	7.49388
25.02	9.36317
25.24	10.2588
25.46	3.06792
25.68	24.7669
25.9	137.903
26.12	5.51817
26.34	12.1297
26.56	7.97416
26.78	3.53483
27	3.90144
27.22	2.58288
27.44	6.0478
27.66	10.08
27.88	40.4965
28.1	16.0693
28.32	33.303
28.54	451.839
28.76	0.629593
28.98	5.67902
29.2	1.01088
29.42	2.1112
29.64	40.2941
29.86	175.351
30.08	3.43837
30.3	5.56463
30.52	8.6406
30.74	4.01774
30.96	7.47787
31.18	383.894
31.4	17.2663
31.62	12.491
31.84	4.98514
32.06	4.21341
32.28	2.54564
32.5	2.94999
32.72	9.39088
32.94	4.47362
33.16	11.8441
33.38	6.93485
33.6	7.1271
33.82	1.80781
34.04	1.63711
34.26	11.4633
34.48	0.247781
34.7	4.06073
34.92	12.2619
35.14	85.9011
35.36	17.7036
35.58	4.30865
35.8	6.25628
36.02	0.455795
36.24	11.4649
36.46	9.51179
36.68	24.8137
36.9	13.186
37.12	19.4195
37.34	11.3937
37.56	3.45269
37.78	5.78365
38	6.85534
38.22	8.48772
38.44	15.368
38.66	37.2271
38.88	1.68176
39.1	2.81635
39.32	6.42834
39.54	2.25964
39.76	31.91
39.98	97.2997
40.2	11.5055
40.42	38.2306
40.64	1.1484
40.86	329.665
41.08	9.39125
41.3	42.2574
41.52	22.3903
41.74	21.4964
41.96	16.1322
42.18	3.76329
42.4	7.30739
42.62	8.73409
42.84	2.93061
43.06	47.9365
43.28	3.88104
43.5	13.5184
43.72	5.34514
43.94	4.7543
44.16	30.3617
44.38	12.3897
44.6	9.4766
44.82	3.72891
45.04	40.9636
45.26	13.1138
45.48	44.0204
45.7	8.58622
45.92	3.94231
46.14	10.9547
46.36	4.37627
46.58	0.528669
46.8	1.61657
47.02	8.65663
47.24	5.63069
47.46	46.5878
47.68	7.40678
47.9	12.8471
48.12	2.657
48.34	29.904
48.56	42.9718
48.78	5.87636
49	11.909
49.22	5.51381
49.44	10.8354
49.66	4.9561
49.88	14.4629
50.1	5.59344
50.32	4.55403
50.54	9.62854
50.76	5.27783
50.98	2.36551
51.2	19.4935
51.42	19.9711
51.64	13.3626
51.86	9.08888
52.08	5.06927
52.3	3.15597
52.52	20.875
52.74	1.92981
52.96	4.88547
53.18	15.2756
53.4	25.0715
53.62	5.82723
53.84	0.201546
54.06	6.19613
54.28	4.94684
54.5	2.64095
54.72	56.3746
54.94	17.1719
55.16	2.90144
55.38	26.1116
55.6	11.0172
55.82	27.3944
56.04	15.7346
56.26	4.99682
56.48	3.37548
56.7	0.195292
56.92	10.0303
57.14	4.57233
57.36	9.12506
57.58	12.4673
57.8	15.5603
58.02	5.56691
58.24	6.27544
58.46	0.126146
58.68	4.89813
58.9	17.4542
59.12	10.3887
59.34	8.18327
59.56	10.0816
59.78	30.2408
60	9.24602
60.22	3.61887
60.44	1.24351
60.66	6.86431
60.88	1.96322
61.1	7.05343
61.32	2.66582
61.54	4.71246
61.76	13.361
61.98	10.2967
62.2	13.1762
62.42	3.02434
62.64	14.6388
62.86	4.38568
63.08	5.75987
63.3	0.774842
63.52	9.55921
63.74	13.1958
63.96	9.1018
64.18	5.12419
64.4	10.4137
64.62	9.4144
64.84	17.4024
65.06	42.4316
65.28	6.65626
65.5	6.44402
65.72	2.49751
65.94	18.7309
66.16	3.02182
66.38	2.38219
66.6	8.7591
66.82	8.45854
67.04	4.56562
67.26	1.81781
67.48	11.0059
67.7	1.95837
67.92	7.88049
68.14	8.86199
68.36	0.923766
68.58	3.73559
68.8	7.45546
69.02	8.62912
69.24	8.63213
69.46	0.565136
69.68	23.4131
69.9	18.2694
70.12	5.18086
70.34	3.15326
70.56	5.2612
70.78	9.19899
71	7.33371
71.22	6.49115
71.44	17.3265
71.66	10.2905
71.88	9.60988
72.1	15.8043
72.32	5.95838
72.54	8.04238
72.76	0.241361
72.98	6.16359
73.2	9.97139
73.42	4.64421
73.64	6.76627
73.86	1.65266
74.08	10.0932
74.3	7.84889
74.52	6.61546
74.74	7.41164
74.96	17.208
75.18	5.42188
75.4	6.39226
75.62	5.4387
75.84	6.57705
76.06	13.4619
76.28	2.05683
76.5	0.214252
76.72	9.25226
76.94	12.3888
77.16	2.46862
77.38	1.54715
77.6	7.58645
77.82	3.53382
78.04	10.4361
78.26	14.5379
78.48	6.41723
78.7	3.93147
78.92	1.7262
79.14	10.5623
79.36	0.469487
79.58	8.3586
79.8	15.2272
80.02	9.8178
80.24	5.81785
80.46	7.84755
80.68	5.7788
80.9	12.9438
81.12	10.1781
81.34	5.39953
81.56	18.7317
81.78	13.0977
82	5.35043
82.22	4.59065
82.44	4.72516
82.66	3.7859
82.88	6.87397
83.1	6.97417
83.32	3.24595
83.54	4.02448
83.76	11.0104
83.98	5.752
84.2	7.52085
84.42	2.50996
84.64	19.5228
84.86	6.6265
85.08	9.75908
85.3	6.76378
85.52	0.18013
85.74	0.733184
85.96	4.76756
86.18	8.78813
86.4	11.8552
86.62	0.941392
86.84	1.26435
87.06	1.00764
87.28	10.1381
87.5	2.96017
87.72	0.946688
87.94	5.7837
88.16	4.48975
88.38	5.41797
88.6	7.47396
88.82	12.4883
89.04	12.0233
89.26	5.93401
89.48	11.0664
89.7	2.48537
89.92	0.034658
