Measurement: Powder, Xray Data XY Processed
Mineral: Hydromagnesite
Rruff sample: R060011
Ideal chemistry: Mg_5_(CO_3_)_4_(OH)_2_4H_2_O
Locality: Paradise Range, Nye County, Nevada, USA
Source: University of Arizona Mineral Museum
Description: Colorless bladed crystals
Diffraction sample description: Powder
Measured chemistry: Mg_5.00_(CO_3_)_4_(OH)_2_Â·4H_2_O
Cell parameters: a: 10.081(6) b: 8.9562(4) c: 8.376(2) alpha: 90 beta: 114.28(8) gamma: 90 volume: 689.4(0) crystal system: monoclinic
x	intensity
5	0
5.22	6.241
5.44	5.269
5.66	5.494
5.88	14.042
6.1	14.379
6.32	14.011
6.54	6.375
6.76	11.846
6.98	5.146
7.2	7.597
7.42	8.805
7.64	10.743
7.86	3.807
8.08	5.826
8.3	1.708
8.52	6.518
8.74	10.278
8.96	5.23
9.18	7.018
9.4	7.906
9.62	210.061
9.84	12.387
10.06	11.719
10.28	10.965
10.5	1.42
10.72	2.705
10.94	6.902
11.16	3.525
11.38	0.471
11.6	3.286
11.82	8.041
12.04	8.128
12.26	9.222
12.48	7.139
12.7	9.169
12.92	4.873
13.14	3.298
13.36	3.437
13.58	13.423
13.8	257.49
14.02	9.737
14.24	8.838
14.46	6.471
14.68	10.285
14.9	12.275
15.12	35.117
15.34	589.479
15.56	15.253
15.78	8.492
16	11.962
16.22	14.402
16.44	22.142
16.66	5.647
16.88	5.008
17.1	10.577
17.32	13.007
17.54	15.897
17.76	16.014
17.98	2.035
18.2	4.62
18.42	8.423
18.64	5.439
18.86	3.058
19.08	8.914
19.3	36.189
19.52	17.141
19.74	13.986
19.96	16.768
20.18	6.711
20.4	6.018
20.62	4.244
20.84	15.386
21.06	1.447
21.28	137.872
21.5	12.731
21.72	44.769
21.94	4.675
22.16	37.833
22.38	15.809
22.6	11.238
22.82	3.743
23.04	7.813
23.26	19.186
23.48	29.356
23.7	4.836
23.92	6.481
24.14	6.345
24.36	6.314
24.58	1.331
24.8	13.467
25.02	7.111
25.24	4.645
25.46	79.767
25.68	7.948
25.9	5.915
26.12	7.076
26.34	2.273
26.56	1.983
26.78	26.986
27	44.401
27.22	15.032
27.44	1.02
27.66	3.603
27.88	67.471
28.1	16.767
28.32	91.193
28.54	4.898
28.76	18.891
28.98	23.097
29.2	30.831
29.42	1.929
29.64	10.828
29.86	6.529
30.08	20.214
30.3	1.873
30.52	26.582
30.74	124.87
30.96	148.813
31.18	9.61
31.4	22.344
31.62	34.552
31.84	5.354
32.06	1.325
32.28	12.158
32.5	4.877
32.72	6.683
32.94	5.301
33.16	21.923
33.38	88.745
33.6	20.608
33.82	0.636
34.04	20.228
34.26	3.797
34.48	1.244
34.7	19.578
34.92	9.492
35.14	8.055
35.36	34.851
35.58	14.784
35.8	45.384
36.02	24.916
36.24	13.234
36.46	17.1
36.68	11.724
36.9	29.011
37.12	10.737
37.34	7.172
37.56	15.232
37.78	19.933
38	6.277
38.22	13.004
38.44	26.909
38.66	8.183
38.88	3.511
39.1	22.366
39.32	66.11
39.54	11.514
39.76	4.709
39.98	6.463
40.2	16.325
40.42	17.311
40.64	2.457
40.86	59.746
41.08	7.809
41.3	34.489
41.52	23.035
41.74	23.551
41.96	83.515
42.18	70.149
42.4	28.861
42.62	7.883
42.84	8.005
43.06	0.204
43.28	4.732
43.5	6.451
43.72	0.302
43.94	9.894
44.16	0.684
44.38	5.361
44.6	13.224
44.82	6.95
45.04	20.358
45.26	5.195
45.48	66.448
45.7	38.19
45.92	6.213
46.14	7.795
46.36	10.998
46.58	5.299
46.8	0.377
47.02	39.429
47.24	13.529
47.46	11.686
47.68	16.079
47.9	13.848
48.12	10.755
48.34	6.388
48.56	2.501
48.78	5.213
49	15.3
49.22	17.508
49.44	3.42
49.66	20.667
49.88	5.575
50.1	14.053
50.32	9.016
50.54	6.94
50.76	10.202
50.98	13.551
51.2	2.701
51.42	17.956
51.64	7.12
51.86	14.3
52.08	27.951
52.3	11.993
52.52	9.074
52.74	20.677
52.96	1.808
53.18	9.962
53.4	1.874
53.62	11.154
53.84	2.807
54.06	4.773
54.28	0.035
54.5	9.15
54.72	8.164
54.94	11.042
55.16	19.606
55.38	7.257
55.6	3.076
55.82	6.886
56.04	13.837
56.26	1.814
56.48	8.207
56.7	18.677
56.92	40.795
57.14	31.686
57.36	12.787
57.58	5.792
57.8	7.56
58.02	5.609
58.24	6.65
58.46	27.907
58.68	13.227
58.9	6.323
59.12	27.148
59.34	6.146
59.56	12.446
59.78	4.796
60	0.05
60.22	9.41
60.44	15.964
60.66	17.364
60.88	5.643
61.1	0.596
61.32	2.029
61.54	16.332
61.76	19.263
61.98	17.567
62.2	13.994
62.42	7.445
62.64	1.849
62.86	0.149
63.08	3.092
63.3	7.639
63.52	10.407
63.74	5.19
63.96	13.892
64.18	10.553
64.4	15.582
64.62	10.444
64.84	8.503
65.06	9.418
65.28	16.119
65.5	1.099
65.72	17.26
65.94	6.238
66.16	0.984
66.38	1.875
66.6	1.37
66.82	6.426
67.04	7.973
67.26	6.707
67.48	1.186
67.7	5.407
67.92	11.752
68.14	4.101
68.36	9.4
68.58	1.847
68.8	9.921
69.02	5.101
69.24	5.117
69.46	5.683
69.68	1.207
69.9	15.893
70.12	1.715
70.34	20.534
70.56	14.176
70.78	14.062
71	19.797
71.22	10.11
71.44	3.426
71.66	8.739
71.88	0.995
72.1	4.405
72.32	2.92
72.54	4.324
72.76	5.513
72.98	7.662
73.2	8.788
73.42	3.863
73.64	0.359
73.86	18.4
74.08	16.281
74.3	3.142
74.52	5.48
74.74	5.273
74.96	2.89
75.18	5.11
75.4	3.296
75.62	11.405
75.84	4.485
76.06	10.485
76.28	16.327
76.5	9.388
76.72	1.868
76.94	1.23
77.16	10.23
77.38	13.483
77.6	16.537
77.82	3.696
78.04	9.648
78.26	0.609
78.48	4.94
78.7	1.787
78.92	16.725
79.14	6.969
79.36	0.895
79.58	6.076
79.8	10.331
80.02	4.333
80.24	2.379
80.46	3.943
80.68	12.242
80.9	6.947
81.12	2.919
81.34	14.889
81.56	7.666
81.78	2.378
82	10.348
82.22	10.042
82.44	8.313
82.66	11.085
82.88	13.001
83.1	1.14
83.32	4.356
83.54	8.47
83.76	12.717
83.98	8.097
84.2	6.181
84.42	8.232
84.64	1.248
84.86	4.532
85.08	4.389
85.3	18.308
85.52	6.05
85.74	4.878
85.96	10.71
86.18	4.929
86.4	5.679
86.62	2.633
86.84	10.684
87.06	4.434
87.28	5.232
87.5	4.212
87.72	2.377
87.94	6.478
88.16	13.569
88.38	11.461
88.6	5.663
88.82	2.59
89.04	1.231
89.26	0.982
89.48	8.991
89.7	13.81
89.92	6.289
