Measurement: Powder, Xray Data XY Processed
Mineral: Hydrotalcite
Rruff sample: R050457
Ideal chemistry: Mg_6_Al_2_CO_3_(OH)_16_(H_2_O)_4_
Locality: Snarum, Norway
Source: University of Arizona Mineral Museum
Description: Pearly-white foliated mass
Diffraction sample description: Powder
Measured chemistry: Mg_6.00_(Al_1.60_Fe^3+^_0.40_)_Σ=2_(CO_3_)(OH)_16_·4H_2_O
Cell parameters: a: 3.0754(2) b: 3.0754(2) c: 23.558(4) alpha: 90 beta: 90 gamma: 120 volume: 192.96(3) crystal system: hexagonal
x	intensity
5	0
5.22	5.4221
5.44	15.9897
5.66	22.8126
5.88	0.605778
6.1	11.7128
6.32	16.7345
6.54	14.5397
6.76	11.5527
6.98	9.15125
7.2	3.72409
7.42	4.86075
7.64	21.9013
7.86	13.0572
8.08	6.71154
8.3	20.9487
8.52	17.1053
8.74	0.769493
8.96	30.2442
9.18	31.919
9.4	38.6149
9.62	0.34053
9.84	20.0436
10.06	8.67255
10.28	0.988113
10.5	2.01665
10.72	31.7896
10.94	105.605
11.16	381.127
11.38	828.631
11.6	460.851
11.82	78.3566
12.04	38.6908
12.26	19.2853
12.48	11.5665
12.7	15.1348
12.92	6.64929
13.14	2.49523
13.36	17.8381
13.58	22.0704
13.8	13.6341
14.02	35.8698
14.24	12.5587
14.46	4.06121
14.68	7.46408
14.9	15.8079
15.12	13.4087
15.34	7.65569
15.56	9.38581
15.78	25.0953
16	7.49029
16.22	7.75713
16.44	5.25472
16.66	1.15733
16.88	1.25219
17.1	23.0702
17.32	2.44569
17.54	10.3415
17.76	22.7104
17.98	13.4925
18.2	21.0345
18.42	14.5911
18.64	27.0707
18.86	22.8335
19.08	6.31209
19.3	10.8987
19.52	18.6061
19.74	13.8399
19.96	5.71754
20.18	11.8104
20.4	14.7505
20.62	25.08
20.84	0.444202
21.06	9.74377
21.28	7.13896
21.5	0.802528
21.72	1.99962
21.94	4.87756
22.16	30.1408
22.38	19.5041
22.6	168.926
22.82	259.513
23.04	106.543
23.26	145.289
23.48	51.638
23.7	9.8012
23.92	14.3192
24.14	30.8076
24.36	9.65667
24.58	9.89194
24.8	31.4412
25.02	19.6426
25.24	0.182419
25.46	5.89006
25.68	3.07958
25.9	2.86625
26.12	4.3975
26.34	19.5274
26.56	5.4174
26.78	3.19938
27	4.49192
27.22	29.5628
27.44	11.5567
27.66	11.2739
27.88	16.117
28.1	5.77853
28.32	3.60655
28.54	19.8357
28.76	7.44741
28.98	11.5752
29.2	1.53594
29.42	4.70984
29.64	15.9746
29.86	9.30853
30.08	10.2797
30.3	16.644
30.52	9.6802
30.74	21.478
30.96	11.1367
31.18	24.1401
31.4	21.1133
31.62	4.73945
31.84	8.39459
32.06	12.8332
32.28	14.5709
32.5	16.0659
32.72	8.45747
32.94	15.0919
33.16	22.0004
33.38	3.8271
33.6	0.206711
33.82	15.7032
34.04	14.3294
34.26	47.0987
34.48	87.028
34.7	75.0349
34.92	36.717
35.14	14.3559
35.36	17.5117
35.58	3.47833
35.8	18.5888
36.02	8.53641
36.24	12.748
36.46	7.91821
36.68	17.7196
36.9	10.4157
37.12	1.56173
37.34	5.30245
37.56	17.5413
37.78	10.23
38	24.4431
38.22	15.4629
38.44	18.8873
38.66	27.1645
38.88	51.9342
39.1	23.1052
39.32	38.6689
39.54	1.66454
39.76	10.3083
39.98	3.19297
40.2	19.2389
40.42	16.2166
40.64	5.44931
40.86	9.72164
41.08	2.01432
41.3	20.2671
41.52	6.93048
41.74	2.93979
41.96	10.544
42.18	11.3706
42.4	1.02438
42.62	8.69471
42.84	7.96323
43.06	0.390865
43.28	10.6095
43.5	7.58404
43.72	15.1007
43.94	25.0574
44.16	20.1792
44.38	21.1056
44.6	17.4455
44.82	18.7784
45.04	8.90513
45.26	5.41173
45.48	11.8578
45.7	10.3205
45.92	47.0665
46.14	38.4966
46.36	43.6009
46.58	20.0376
46.8	18.0391
47.02	8.99031
47.24	23.087
47.46	17.5763
47.68	16.4951
47.9	7.34172
48.12	15.4649
48.34	10.6571
48.56	28.6397
48.78	6.96184
49	24.204
49.22	14.7428
49.44	3.31558
49.66	21.292
49.88	12.0857
50.1	5.26869
50.32	6.92944
50.54	13.0971
50.76	18.5431
50.98	1.51437
51.2	7.95002
51.42	15.9878
51.64	11.0319
51.86	27.0912
52.08	8.65776
52.3	7.25746
52.52	6.91544
52.74	6.08919
52.96	0.187618
53.18	5.24262
53.4	5.62737
53.62	4.39853
53.84	6.49849
54.06	6.74657
54.28	4.83542
54.5	16.9071
54.72	5.8313
54.94	13.6957
55.16	22.754
55.38	13.7777
55.6	10.353
55.82	6.31888
56.04	8.33515
56.26	8.83839
56.48	8.42494
56.7	7.67328
56.92	10.0857
57.14	2.8619
57.36	5.96386
57.58	6.94514
57.8	3.75147
58.02	6.83503
58.24	8.16662
58.46	8.68561
58.68	18.397
58.9	10.4973
59.12	6.78332
59.34	4.64372
59.56	10.0039
59.78	2.93035
60	27.4404
60.22	26.8573
60.44	35.4333
60.66	8.43614
60.88	10.9578
61.1	24.4962
61.32	26.8032
61.54	30.9493
61.76	13.0041
61.98	28.8335
62.2	8.24534
62.42	8.15041
62.64	10.2753
62.86	10.2902
63.08	4.47904
63.3	6.22157
63.52	16.9552
63.74	4.20777
63.96	4.87289
64.18	4.63086
64.4	6.80983
64.62	13.506
64.84	6.6279
65.06	14.7439
65.28	12.5756
65.5	20.1178
65.72	18.2747
65.94	7.86846
66.16	1.21421
66.38	1.44071
66.6	12.1461
66.82	15.5304
67.04	6.33799
67.26	14.0459
67.48	15.5167
67.7	4.98896
67.92	16.383
68.14	16.8317
68.36	19.5093
68.58	7.55417
68.8	7.72527
69.02	11.2572
69.24	18.1
69.46	23.8162
69.68	11.4318
69.9	15.0997
70.12	9.84126
70.34	8.59778
70.56	11.2083
70.78	4.53739
71	3.38125
71.22	7.38284
71.44	5.27564
71.66	12.007
71.88	1.21648
72.1	14.519
72.32	6.61533
72.54	21.51
72.76	10.3417
72.98	12.9681
73.2	17.0836
73.42	21.2111
73.64	20.1534
73.86	4.56371
74.08	21.8576
74.3	5.11768
74.52	6.29455
74.74	13.6699
74.96	11.6372
75.18	3.02237
75.4	5.79442
75.62	10.994
75.84	16.3911
76.06	6.73269
76.28	6.58047
76.5	6.80238
76.72	15.3259
76.94	20.7084
77.16	4.88547
77.38	17.6824
77.6	4.36077
77.82	16.2396
78.04	7.01214
78.26	0.730961
78.48	2.35013
78.7	16.7355
78.92	20.6415
79.14	15.6769
79.36	12.1608
79.58	19.9481
79.8	13.9328
80.02	3.01731
80.24	15.2718
80.46	10.9897
80.68	4.23388
80.9	6.50752
81.12	10.6424
81.34	11.9958
81.56	9.08744
81.78	6.74606
82	4.86528
82.22	3.97856
82.44	0.1381
82.66	7.2078
82.88	16.7951
83.1	15.9196
83.32	8.50024
83.54	8.40018
83.76	5.4104
83.98	8.88797
84.2	11.4805
84.42	2.58973
84.64	4.22687
84.86	4.35241
85.08	11.3272
85.3	12.1623
85.52	7.7952
85.74	15.3555
85.96	10.5027
86.18	1.59206
86.4	9.99937
86.62	13.3137
86.84	8.43583
87.06	10.6916
87.28	19.2167
87.5	12.266
87.72	14.7276
87.94	13.7769
88.16	1.82471
88.38	5.76184
88.6	2.89696
88.82	10.6166
89.04	13.7303
89.26	10.2279
89.48	11.9507
89.7	10.266
89.92	18.7419
