Measurement: Powder, Xray Data XY Processed
Mineral: Hydroboracite
Rruff sample: R060866
Ideal chemistry: CaMg[B_3_O_4_(OH)_3_]_2_3H_2_O
Locality: Thompson mine, Death Valley, California, USA
Source: Michael Scott
Description: Tuft of colorless slender prismatic crystals
Diffraction sample description: Single crystal, powder profile is calculated
Measured chemistry: Ca_1.00_Mg_1.00_B_6_O_8_(OH)_6_Â·3H_2_O ; B and H not measured but assumed by stoichiometry and verified by Raman
Cell parameters: a: 11.767(1) b: 6.6826(8) c: 8.2391(6) alpha: 90 beta: 102.643(8) gamma: 90 volume: 632.2(1) crystal system: monoclinic
x	intensity
5	0
5.22	0
5.44	0
5.66	0
5.88	0
6.1	0
6.32	0
6.54	0
6.76	0
6.98	0
7.2	0
7.42	0
7.64	2.987
7.86	0
8.08	0
8.3	0
8.52	0
8.74	0
8.96	0
9.18	0
9.4	0
9.62	0
9.84	0
10.06	0
10.28	0
10.5	0
10.72	0
10.94	0
11.16	0
11.38	0
11.6	0
11.82	0
12.04	0
12.26	0
12.48	0
12.7	0
12.92	0
13.14	0.116
13.36	0.087
13.58	0
13.8	0
14.02	0
14.24	0
14.46	0
14.68	0
14.9	0
15.12	0
15.34	88.431
15.56	0.001
15.78	0
16	0
16.22	0
16.44	0
16.66	0
16.88	0
17.1	0
17.32	3.066
17.54	0
17.76	0.004
17.98	7.138
18.2	0
18.42	0
18.64	0
18.86	0
19.08	0
19.3	0
19.52	0
19.74	0.003
19.96	16.546
20.18	0
20.4	9.047
20.62	0
20.84	0
21.06	0
21.28	0
21.5	0.683
21.72	0.391
21.94	0
22.16	7.907
22.38	0
22.6	0
22.82	0
23.04	0
23.26	0.532
23.48	0
23.7	0
23.92	0
24.14	9.951
24.36	0
24.58	0
24.8	26.511
25.02	8.863
25.24	0
25.46	0.006
25.68	0.069
25.9	27.906
26.12	0
26.34	0
26.56	0.005
26.78	34.652
27	0.699
27.22	0
27.44	0
27.66	7.274
27.88	0.066
28.1	0
28.32	0.857
28.54	0.302
28.76	0
28.98	0.259
29.2	0.004
29.42	0.603
29.64	0.002
29.86	1.516
30.08	0
30.3	0
30.52	0.085
30.74	0.075
30.96	9.404
31.18	2.142
31.4	0.038
31.62	2.018
31.84	0.002
32.06	0
32.28	0
32.5	0
32.72	0.729
32.94	0
33.16	0
33.38	0
33.6	2.033
33.82	0.001
34.04	4.777
34.26	0.758
34.48	0
34.7	1.246
34.92	1.748
35.14	0
35.36	0.857
35.58	0.685
35.8	4.199
36.02	0.656
36.24	5.429
36.46	4.225
36.68	0.001
36.9	46.888
37.12	0
37.34	0
37.56	0
37.78	0
38	0.119
38.22	0.307
38.44	0.053
38.66	0.842
38.88	0.652
39.1	2.779
39.32	0.709
39.54	0.094
39.76	0
39.98	0
40.2	0
40.42	6.614
40.64	6.368
40.86	5.341
41.08	0.038
41.3	0.26
41.52	6.428
41.74	0.035
41.96	0
42.18	0.001
42.4	0.836
42.62	0.561
42.84	0
43.06	0.109
43.28	5.897
43.5	0.204
43.72	0.016
43.94	4.107
44.16	0.266
44.38	3.429
44.6	0.569
44.82	1.513
45.04	1.335
45.26	1.052
45.48	1.591
45.7	3.713
45.92	13.244
46.14	10.877
46.36	1.652
46.58	3.052
46.8	0.008
47.02	0.001
47.24	3.581
47.46	20.29
47.68	8.339
47.9	0.137
48.12	1.148
48.34	1.397
48.56	0
48.78	0.317
49	0.012
49.22	0.07
49.44	5.933
49.66	2.095
49.88	1.042
50.1	0.811
50.32	0.063
50.54	0
50.76	0.002
50.98	2.061
51.2	1.012
51.42	1.225
51.64	2.39
51.86	0.269
52.08	0.103
52.3	0.059
52.52	1.157
52.74	0.02
52.96	0.028
53.18	2.377
53.4	3.817
53.62	0.893
53.84	0.03
54.06	0.903
54.28	0.108
54.5	0
54.72	0.011
54.94	1.576
55.16	0.242
55.38	2.325
55.6	0.853
55.82	0.928
56.04	2.786
56.26	1.622
56.48	0.021
56.7	0
56.92	0.417
57.14	0.455
57.36	5.883
57.58	1.727
57.8	4.234
58.02	1.568
58.24	1.359
58.46	0.605
58.68	0.604
58.9	3.926
59.12	0.231
59.34	2.09
59.56	2.544
59.78	0.862
60	0.426
60.22	1.483
60.44	0.045
60.66	0.717
60.88	0.09
61.1	0.046
61.32	1.085
61.54	0.307
61.76	0.684
61.98	0.361
62.2	0.193
62.42	0.018
62.64	0.031
62.86	0.192
63.08	1.032
63.3	0.105
63.52	1.236
63.74	0.407
63.96	0.011
64.18	0.61
64.4	0.463
64.62	1.284
64.84	0.2
65.06	0.867
65.28	0.104
65.5	0.397
65.72	0.697
65.94	0.519
66.16	0.602
66.38	0.065
66.6	0.32
66.82	0.401
67.04	0.111
67.26	1.036
67.48	0.421
67.7	0.338
67.92	0.163
68.14	0.291
68.36	0.085
68.58	0.225
68.8	0.037
69.02	0.2
69.24	0.553
69.46	0.303
69.68	0.015
69.9	1.278
70.12	1.178
70.34	0.996
70.56	1.55
70.78	0.689
71	0.155
71.22	0.617
71.44	0.756
71.66	1.736
71.88	1.007
72.1	0.012
72.32	0.256
72.54	1.088
72.76	0.52
72.98	0.484
73.2	0.908
73.42	0.278
73.64	0.084
73.86	0.446
74.08	0.199
74.3	0.237
74.52	0.411
74.74	1.766
74.96	0.827
75.18	1.781
75.4	2.003
75.62	1.784
75.84	1.22
76.06	0.386
76.28	0.046
76.5	0.13
76.72	0.282
76.94	0.389
77.16	0.267
77.38	0.064
77.6	0.01
77.82	0.016
78.04	0.034
78.26	0.349
78.48	0.575
78.7	0.542
78.92	0.571
79.14	0.338
79.36	0.292
79.58	0.076
79.8	0.122
80.02	0.053
80.24	0.201
80.46	0.112
80.68	0.598
80.9	0.459
81.12	1.63
81.34	1.486
81.56	0.632
81.78	0.192
82	0.637
82.22	2.065
82.44	1.473
82.66	0.187
82.88	0.074
83.1	0.081
83.32	0.046
83.54	0.421
83.76	0.153
83.98	0.092
84.2	0.179
84.42	0.359
84.64	0.542
84.86	0.3
85.08	0.191
85.3	0.553
85.52	0.188
85.74	0.83
85.96	0.196
86.18	0.073
86.4	0.059
86.62	0.319
86.84	0.101
87.06	0.358
87.28	0.362
87.5	0.334
87.72	0.042
87.94	0.289
88.16	1.078
88.38	0.821
88.6	0.73
88.82	0.448
89.04	0.72
89.26	0.195
89.48	0.15
89.7	0.73
89.92	0.148
