Measurement: Powder, Xray Data XY Processed
Mineral: Hydroxylherderite
Rruff sample: R060353
Ideal chemistry: CaBe(P^5+^O_4_)(OH)
Locality: Shigar Valley, northeast of Skardu, Baltistan, Pakistan
Source: Herb Obodda
Description: Colorless equant crystal
Diffraction sample description: Powder
Measured chemistry: (Ca_0.99_Mn_0.01_)_Σ=1_Be_1.00_P_1.00_O_4_((OH)_0.52_F_0.48_)_Σ=1_; trace amounts of Na; Be not measured but assumed by stoichiometry; OH estimated by charge balance
Cell parameters: a: 9.7632(4) b: 7.6733(4) c: 4.7790(5) alpha: 90. beta: 90.26(1) gamma: 90. volume: 358.03(4) crystal system: monoclinic
x	intensity
5	0
5.22	2.418
5.44	10.212
5.66	8.184
5.88	7.614
6.1	17.2
6.32	8.24
6.54	8.185
6.76	4.021
6.98	11.9
7.2	3.681
7.42	1.547
7.64	3.127
7.86	0.076
8.08	4.661
8.3	8.275
8.52	5.699
8.74	9.65
8.96	10.424
9.18	4.733
9.4	14.845
9.62	7.262
9.84	10.53
10.06	10.722
10.28	1.065
10.5	5.086
10.72	1.701
10.94	7.444
11.16	2.634
11.38	7.878
11.6	5.938
11.82	0.857
12.04	5.241
12.26	2.36
12.48	5.732
12.7	5.574
12.92	0.781
13.14	2.703
13.36	1.677
13.58	0.724
13.8	5.626
14.02	2.586
14.24	6.397
14.46	3.414
14.68	18.427
14.9	9.482
15.12	3.538
15.34	1.585
15.56	2.825
15.78	3.042
16	2.215
16.22	1.499
16.44	1.603
16.66	5.783
16.88	1.845
17.1	0.233
17.32	4.661
17.54	0.387
17.76	1.308
17.98	3.547
18.2	8.407
18.42	8.495
18.64	32.488
18.86	5.514
19.08	7.541
19.3	1.582
19.52	0.622
19.74	3.77
19.96	3.922
20.18	3.973
20.4	3.018
20.62	2.032
20.84	2.87
21.06	0.088
21.28	2.937
21.5	6.98
21.72	2.939
21.94	15.801
22.16	2.667
22.38	4.644
22.6	1.488
22.82	1.424
23.04	11.46
23.26	29.6
23.48	3.545
23.7	15.404
23.92	19.37
24.14	0.368
24.36	5.505
24.58	1.516
24.8	0.374
25.02	3.407
25.24	0.465
25.46	1.362
25.68	7.364
25.9	8.496
26.12	33.785
26.34	7.096
26.56	3.983
26.78	7.749
27	2.583
27.22	1.423
27.44	0.163
27.66	1.838
27.88	3.49
28.1	7.395
28.32	2.016
28.54	69.299
28.76	109.891
28.98	11.791
29.2	2.806
29.42	7.142
29.64	59.411
29.86	38.584
30.08	10.777
30.3	3.004
30.52	2.846
30.74	1.199
30.96	3.487
31.18	20.717
31.4	53.934
31.62	11.925
31.84	9.812
32.06	0.133
32.28	5.075
32.5	3.303
32.72	4.418
32.94	0.618
33.16	6.702
33.38	1.657
33.6	1.292
33.82	3.706
34.04	3.695
34.26	1.388
34.48	6.494
34.7	0.3
34.92	7.396
35.14	5.278
35.36	36.054
35.58	33.788
35.8	6.735
36.02	4.591
36.24	5.72
36.46	0.813
36.68	1.845
36.9	3.925
37.12	6.298
37.34	3.337
37.56	2.392
37.78	2.454
38	3.747
38.22	0.326
38.44	1.749
38.66	7.398
38.88	4.968
39.1	3.697
39.32	0.473
39.54	7.7
39.76	13.067
39.98	44.646
40.2	6.153
40.42	0.647
40.64	29.281
40.86	12.272
41.08	92.316
41.3	4.906
41.52	28.294
41.74	12.64
41.96	6.329
42.18	15.776
42.4	3.231
42.62	9.737
42.84	2.06
43.06	1.51
43.28	5.603
43.5	6.711
43.72	4.407
43.94	0.182
44.16	2.756
44.38	6.558
44.6	4.46
44.82	7.382
45.04	5.298
45.26	4.353
45.48	2.346
45.7	19.434
45.92	3.758
46.14	1.865
46.36	1.976
46.58	8.981
46.8	3.338
47.02	0.6
47.24	5.458
47.46	7.451
47.68	5.271
47.9	7.229
48.12	9.112
48.34	6.93
48.56	7.082
48.78	24.157
49	27.305
49.22	5.181
49.44	5.461
49.66	2.51
49.88	3.779
50.1	2.811
50.32	2.817
50.54	1.18
50.76	1.678
50.98	2.524
51.2	30.595
51.42	7.324
51.64	5.337
51.86	4.158
52.08	6.027
52.3	2.204
52.52	7.83
52.74	9.994
52.96	1.051
53.18	7.236
53.4	6.581
53.62	5.626
53.84	7.616
54.06	3.448
54.28	2.273
54.5	0.158
54.72	3.017
54.94	5.841
55.16	13.583
55.38	18.592
55.6	21.279
55.82	15.101
56.04	46.165
56.26	12.391
56.48	2.425
56.7	5.85
56.92	0.057
57.14	7.454
57.36	1.688
57.58	0.116
57.8	0.008
58.02	4.082
58.24	2.973
58.46	1.765
58.68	0.713
58.9	0.37
59.12	13.461
59.34	4.361
59.56	2.296
59.78	5.346
60	13.324
60.22	9.331
60.44	3.357
60.66	2.437
60.88	1.314
61.1	3.29
61.32	10.286
61.54	4.292
61.76	1.253
61.98	2.179
62.2	4.169
62.42	4.343
62.64	6.475
62.86	11.492
63.08	3.44
63.3	6.494
63.52	1.53
63.74	0.631
63.96	14.807
64.18	10.791
64.4	7.777
64.62	9.689
64.84	0.481
65.06	3.352
65.28	5.363
65.5	6.384
65.72	1.422
65.94	1.651
66.16	5.469
66.38	7.846
66.6	8.959
66.82	4.13
67.04	1.042
67.26	11.179
67.48	1.259
67.7	2.521
67.92	2.574
68.14	4.716
68.36	2.567
68.58	1.631
68.8	0.362
69.02	7.514
69.24	7.488
69.46	3.376
69.68	3.277
69.9	3.179
70.12	1.924
70.34	10.814
70.56	3.622
70.78	7.548
71	3.455
71.22	2.453
71.44	8.271
71.66	11.235
71.88	6.63
72.1	4.825
72.32	2.967
72.54	0.12
72.76	4.295
72.98	0.589
73.2	5.385
73.42	0.688
73.64	7.074
73.86	0.061
74.08	2.838
74.3	5.306
74.52	3.038
74.74	4.889
74.96	0.278
75.18	6.414
75.4	3.395
75.62	0.601
75.84	4.438
76.06	7.628
76.28	2.911
76.5	4.23
76.72	7.482
76.94	1.581
77.16	7.496
77.38	0.602
77.6	0.34
77.82	3.715
78.04	11.942
78.26	10.897
78.48	6.681
78.7	6.463
78.92	3.076
79.14	0.922
79.36	4.938
79.58	4.912
79.8	14.812
80.02	14.679
80.24	8.658
80.46	3.414
80.68	9.372
80.9	2.354
81.12	3.385
81.34	3.483
81.56	11.489
81.78	11.742
82	11.018
82.22	6.435
82.44	3.72
82.66	1.719
82.88	1.122
83.1	4.012
83.32	4.113
83.54	8.165
83.76	5.219
83.98	5.113
84.2	7.114
84.42	7.015
84.64	7.699
84.86	3.543
85.08	4.583
85.3	2.707
85.52	4.709
85.74	7.687
85.96	4.787
86.18	8.832
86.4	6.69
86.62	6.842
86.84	5.851
87.06	6.921
87.28	7.887
87.5	1.914
87.72	0.784
87.94	0.277
88.16	5.68
88.38	0.546
88.6	0.433
88.82	3.531
89.04	2.287
89.26	16.134
89.48	6.098
89.7	6.418
89.92	3.796
