Measurement: Powder, Xray Data XY Processed
Mineral: Hydroxyapophyllite-(K)
Rruff sample: R050169
Ideal chemistry: KCa_4_Si_8_O_20_(OH)8H_2_O
Locality: Christmas mine, Christmas, Gila County, Arizona, USA
Source: Marcus Origlieri
Description: Colorless prismatic crystals associated with kinoite, R050168
Diffraction sample description: Single crystal, powder profile is calculated
Measured chemistry: K_1.00_Ca_4.00_Si_8.00_O_20_((OH)_0.98_F_0.02_)_Σ=1_·8H_2_O
Cell parameters: a: 8.9685(7) b: 8.9685(7) c: 15.842(2) alpha: 90 beta: 90 gamma: 90 volume: 1274.2(2) crystal system: tetragonal
x	intensity
5	0
5.22	0
5.44	0
5.66	0
5.88	0
6.1	0
6.32	0
6.54	0
6.76	0
6.98	0
7.2	0
7.42	0
7.64	0
7.86	0
8.08	0
8.3	0
8.52	0
8.74	0
8.96	0
9.18	0
9.4	0
9.62	0
9.84	0
10.06	0
10.28	0
10.5	0
10.72	0
10.94	0
11.16	0.535
11.38	37.487
11.6	0
11.82	0
12.04	0
12.26	0
12.48	0
12.7	0
12.92	0
13.14	0
13.36	0
13.58	0
13.8	0
14.02	2.262
14.24	0
14.46	0
14.68	0
14.9	0
15.12	0
15.34	0
15.56	0
15.78	0
16	0
16.22	0
16.44	0
16.66	0
16.88	0
17.1	0
17.32	0
17.54	0
17.76	0
17.98	0.028
18.2	0
18.42	0
18.64	0
18.86	0
19.08	0
19.3	0
19.52	22.52
19.74	7.753
19.96	0
20.18	0
20.4	0
20.62	0
20.84	0
21.06	0
21.28	0
21.5	0
21.72	0
21.94	0
22.16	1.697
22.38	3.051
22.6	0.003
22.82	11.77
23.04	0
23.26	0
23.48	0
23.7	0
23.92	0
24.14	0
24.36	0
24.58	0
24.8	5.897
25.02	0.143
25.24	0
25.46	0
25.68	0
25.9	0
26.12	0
26.34	0
26.56	5.101
26.78	0
27	0
27.22	0
27.44	0
27.66	0
27.88	0.135
28.1	26.042
28.32	0.001
28.54	0
28.76	0
28.98	0
29.2	0
29.42	0
29.64	0
29.86	27.343
30.08	0.007
30.3	1.438
30.52	4.415
30.74	0
30.96	0
31.18	0
31.4	0.001
31.62	0.489
31.84	0.765
32.06	4.894
32.28	0
32.5	0
32.72	0
32.94	0
33.16	0
33.38	0
33.6	5.811
33.82	0.001
34.04	0.053
34.26	0
34.48	0.363
34.7	0
34.92	0
35.14	0
35.36	0
35.58	0
35.8	0.075
36.02	22.737
36.24	6.608
36.46	0.047
36.68	0.117
36.9	2.539
37.12	0
37.34	0
37.56	0
37.78	0.015
38	0.937
38.22	0
38.44	0
38.66	0
38.88	0
39.1	0.014
39.32	0
39.54	0.018
39.76	0.001
39.98	0.281
40.2	0.807
40.42	0
40.64	0
40.86	1.498
41.08	0.745
41.3	0.008
41.52	0.766
41.74	0.049
41.96	3.282
42.18	0
42.4	0
42.62	0.003
42.84	8.557
43.06	2.959
43.28	0.041
43.5	0
43.72	0
43.94	0
44.16	0
44.38	0.678
44.6	1.751
44.82	0.062
45.04	0.068
45.26	6.779
45.48	0.125
45.7	0.801
45.92	0.011
46.14	0.22
46.36	0.367
46.58	0.205
46.8	0.64
47.02	0.437
47.24	0
47.46	0
47.68	1.139
47.9	0.002
48.12	0.001
48.34	0
48.56	0.085
48.78	0.035
49	0.002
49.22	0
49.44	0
49.66	0
49.88	0
50.1	0
50.32	0.123
50.54	0.872
50.76	0.028
50.98	2.795
51.2	2.887
51.42	2.567
51.64	11.798
51.86	0.174
52.08	0.2
52.3	2.625
52.52	0.034
52.74	0
52.96	0.673
53.18	0.056
53.4	0.117
53.62	0.173
53.84	0.013
54.06	1.706
54.28	0.198
54.5	0.036
54.72	1.084
54.94	0.736
55.16	0.503
55.38	2.331
55.6	3.194
55.82	0.08
56.04	0
56.26	0.305
56.48	0.334
56.7	0.539
56.92	0.002
57.14	0.34
57.36	0.345
57.58	0.035
57.8	0.545
58.02	1.428
58.24	2.555
58.46	0.02
58.68	0
58.9	0.011
59.12	0.811
59.34	0.393
59.56	1.061
59.78	2.932
60	0.002
60.22	1.21
60.44	1.406
60.66	0.083
60.88	0
61.1	0.231
61.32	0.043
61.54	0.026
61.76	0.662
61.98	2.864
62.2	2.727
62.42	0.001
62.64	0.017
62.86	2.385
63.08	1.868
63.3	1.434
63.52	3.126
63.74	0.301
63.96	0
64.18	0.599
64.4	0.351
64.62	0
64.84	0.036
65.06	0.141
65.28	0.006
65.5	0.006
65.72	0.159
65.94	0.513
66.16	0.019
66.38	0.033
66.6	0.068
66.82	0.046
67.04	1.748
67.26	0.438
67.48	0.025
67.7	0.245
67.92	0.722
68.14	0.114
68.36	0.013
68.58	0.052
68.8	0.003
69.02	0.797
69.24	1.029
69.46	0.33
69.68	0
69.9	0
70.12	0.67
70.34	0.958
70.56	0.586
70.78	0.221
71	0.181
71.22	1.009
71.44	0.874
71.66	0.116
71.88	0.004
72.1	0
72.32	0
72.54	0.028
72.76	0.099
72.98	0.214
73.2	0.127
73.42	0.096
73.64	0.283
73.86	0.779
74.08	0.404
74.3	0.392
74.52	1.788
74.74	0.976
74.96	0.296
75.18	0.096
75.4	0.001
75.62	0.263
75.84	0.676
76.06	0.283
76.28	0.039
76.5	0.795
76.72	0.385
76.94	0.039
77.16	0.046
77.38	0.436
77.6	0.56
77.82	0.137
78.04	0
78.26	0
78.48	0.465
78.7	0.18
78.92	0.005
79.14	0.323
79.36	0.23
79.58	0.012
79.8	0.615
80.02	0.289
80.24	0.011
80.46	1.034
80.68	0.535
80.9	0.727
81.12	0.534
81.34	0.209
81.56	0.201
81.78	0.219
82	0.285
82.22	0.078
82.44	0.013
82.66	0.193
82.88	0.054
83.1	0.029
83.32	0.047
83.54	0.01
83.76	0.035
83.98	0.062
84.2	1.71
84.42	1.34
84.64	0.263
84.86	0.037
85.08	0.007
85.3	0.013
85.52	0.02
85.74	0.006
85.96	0.072
86.18	0.059
86.4	0.202
86.62	0.501
86.84	1.587
87.06	0.379
87.28	0.781
87.5	0.608
87.72	0.304
87.94	0.383
88.16	0.312
88.38	0.029
88.6	1.436
88.82	0.333
89.04	0.157
89.26	0.118
89.48	0.056
89.7	0.011
89.92	0.34
