Measurement: Powder, Xray Data XY Processed
Mineral: Hydroxylclinohumite
Rruff sample: R060291
Ideal chemistry: Mg_9_(SiO_4_)_4_(OH)_2_
Locality: Koksha Valley, Badakshan Province, Afghanistan
Source: Herb Obodda
Description: Deep red tabular crystal
Diffraction sample description: Powder
Cell parameters: a: 4.7408(1) b: 10.2509(2) c: 13.6676(2) alpha: 100.920(3) beta: 90. gamma: 90. volume: 652.19(1) crystal system: monoclinic
x	intensity
5	0
5.22	9.065
5.44	20.018
5.66	18.983
5.88	13.971
6.1	16.646
6.32	15.036
6.54	8.269
6.76	13.651
6.98	6.171
7.2	14.026
7.42	13.15
7.64	11.857
7.86	7.521
8.08	7.785
8.3	11.843
8.52	8.651
8.74	4.471
8.96	9.288
9.18	2.996
9.4	5.733
9.62	14.98
9.84	0.02
10.06	8.459
10.28	3.037
10.5	13.898
10.72	4.039
10.94	0.622
11.16	6.792
11.38	1.973
11.6	5.457
11.82	3.791
12.04	1.239
12.26	15.802
12.48	10.391
12.7	10.498
12.92	9.129
13.14	9.319
13.36	4.47
13.58	3.396
13.8	3.993
14.02	7.126
14.24	0.423
14.46	14.566
14.68	1.852
14.9	12.569
15.12	0.984
15.34	0.854
15.56	7.249
15.78	4.36
16	3.835
16.22	7.766
16.44	1.704
16.66	11.282
16.88	9.443
17.1	9.418
17.32	9.277
17.54	11.479
17.76	19.435
17.98	13.395
18.2	7.675
18.42	12.875
18.64	5.193
18.86	14.31
19.08	3.412
19.3	2.613
19.52	6.67
19.74	10.503
19.96	27.575
20.18	3.52
20.4	4.212
20.62	2.878
20.84	6.713
21.06	1.409
21.28	14.755
21.5	4.933
21.72	14.577
21.94	5.278
22.16	1.354
22.38	10.052
22.6	4.141
22.82	8.037
23.04	34.943
23.26	6.872
23.48	8.551
23.7	4.832
23.92	9.528
24.14	37.353
24.36	14.29
24.58	9.065
24.8	5.666
25.02	0.257
25.24	12.745
25.46	19.904
25.68	9.82
25.9	48.545
26.12	8.307
26.34	6.452
26.56	16.512
26.78	3.623
27	8.752
27.22	5.396
27.44	21.604
27.66	68.013
27.88	6.107
28.1	17.281
28.32	14.267
28.54	14.268
28.76	7.52
28.98	5.494
29.2	2.825
29.42	2.742
29.64	14.415
29.86	1.957
30.08	1.809
30.3	8.958
30.52	0.297
30.74	7.69
30.96	3.531
31.18	1.102
31.4	10.9
31.62	1.294
31.84	4.065
32.06	8
32.28	17.768
32.5	38.857
32.72	93.454
32.94	5.617
33.16	0.531
33.38	30.205
33.6	6.154
33.82	4.993
34.04	3.815
34.26	7.657
34.48	44.213
34.7	10.141
34.92	5.673
35.14	11.925
35.36	111.465
35.58	16.056
35.8	88.512
36.02	10.91
36.24	3.169
36.46	4.518
36.68	9.817
36.9	6.017
37.12	7.106
37.34	73.266
37.56	45.788
37.78	11.258
38	16.645
38.22	59.522
38.44	0.92
38.66	3.748
38.88	9.295
39.1	15.8
39.32	0.481
39.54	7.207
39.76	73.655
39.98	130.729
40.2	23.238
40.42	3.461
40.64	8.915
40.86	9.047
41.08	2.442
41.3	7.215
41.52	6.026
41.74	6.651
41.96	31.259
42.18	6.734
42.4	2.397
42.62	4.959
42.84	9.845
43.06	8.787
43.28	5.958
43.5	6.872
43.72	9.864
43.94	5.871
44.16	1.122
44.38	16.096
44.6	7.219
44.82	9.52
45.04	9.365
45.26	10.579
45.48	7.659
45.7	13.715
45.92	3.871
46.14	8.198
46.36	3.926
46.58	7.699
46.8	9.636
47.02	9.579
47.24	3.997
47.46	10.945
47.68	4.007
47.9	0.347
48.12	4.641
48.34	11.632
48.56	15.377
48.78	1.508
49	1.374
49.22	6.432
49.44	0.312
49.66	6.417
49.88	16.323
50.1	0.597
50.32	0.508
50.54	7.347
50.76	1.042
50.98	9.711
51.2	10.371
51.42	17.906
51.64	4.697
51.86	3.429
52.08	6.774
52.3	26.106
52.52	81.776
52.74	72.977
52.96	8.919
53.18	6.996
53.4	12.93
53.62	1.99
53.84	3.052
54.06	10.402
54.28	9.756
54.5	28.495
54.72	12.382
54.94	2.22
55.16	3.249
55.38	10.128
55.6	3.983
55.82	5.815
56.04	4.649
56.26	6.614
56.48	20.145
56.7	8.833
56.92	7.631
57.14	24.637
57.36	11.913
57.58	4.209
57.8	2.538
58.02	7.762
58.24	6.112
58.46	2.702
58.68	4.746
58.9	16.871
59.12	8.972
59.34	8.619
59.56	4.929
59.78	6.314
60	16.621
60.22	24.727
60.44	11.537
60.66	11.229
60.88	5.819
61.1	2.313
61.32	2.548
61.54	9.405
61.76	10.335
61.98	15.931
62.2	23.475
62.42	57.564
62.64	57.354
62.86	36.084
63.08	8.322
63.3	5.545
63.52	6.806
63.74	9.166
63.96	3.443
64.18	9.842
64.4	4.087
64.62	12.794
64.84	10.979
65.06	12.913
65.28	11.891
65.5	7.912
65.72	6.973
65.94	8.826
66.16	1.618
66.38	2.904
66.6	7.713
66.82	30.639
67.04	26.257
67.26	19.873
67.48	17.089
67.7	5.638
67.92	0.871
68.14	8.289
68.36	11.293
68.58	9.309
68.8	11.79
69.02	1.829
69.24	3.69
69.46	0.316
69.68	5.85
69.9	28.763
70.12	28.797
70.34	8.606
70.56	2.378
70.78	0.523
71	4.843
71.22	5.104
71.44	12.531
71.66	8.951
71.88	9.121
72.1	5.551
72.32	12.707
72.54	2.983
72.76	1.005
72.98	3.245
73.2	3.582
73.42	11.161
73.64	11.271
73.86	7.072
74.08	6.727
74.3	4.638
74.52	11.067
74.74	12.062
74.96	7.946
75.18	6.641
75.4	5.56
75.62	10.504
75.84	1.622
76.06	3.276
76.28	13.453
76.5	9.537
76.72	7.657
76.94	5.686
77.16	0.355
77.38	0.538
77.6	3.448
77.82	6.718
78.04	20.609
78.26	8.679
78.48	3.691
78.7	5.589
78.92	0.312
79.14	5.923
79.36	4.057
79.58	9.01
79.8	7.224
80.02	12.197
80.24	12.974
80.46	5.017
80.68	5.317
80.9	9.297
81.12	19.49
81.34	4.235
81.56	11.786
81.78	1.239
82	13.764
82.22	6.588
82.44	1.464
82.66	3.665
82.88	10.282
83.1	10.188
83.32	9.293
83.54	7.877
83.76	0.442
83.98	9.704
84.2	12.447
84.42	8.361
84.64	5.11
84.86	3.065
85.08	1.471
85.3	14.64
85.52	1.46
85.74	16.761
85.96	12.031
86.18	18.151
86.4	11.547
86.62	2.867
86.84	0.992
87.06	8.38
87.28	10.917
87.5	6.163
87.72	7.178
87.94	13.568
88.16	2.209
88.38	4.166
88.6	7.448
88.82	11.393
89.04	12.685
89.26	13.512
89.48	9.98
89.7	7.207
89.92	10.093
