Measurement: Powder, Xray Data XY Processed
Mineral: Hydroxylapatite
Rruff sample: R060180
Ideal chemistry: Ca_5_(P^5+^O_4_)_3_OH
Locality: Holly Springs, Georgia, USA
Source: Julian Gray
Description: Tan colored nodule in talc schist associated with serpentinite
Diffraction sample description: Powder
Measured chemistry: Ca_5.00_(P_1.00_O_4_)_3_((OH)_0.98_Cl_0.02_)
Cell parameters: a: 9.41932(9) b: 9.41932(9) c: 6.8792(1) alpha: 90 beta: 90 gamma: 120 volume: 528.58(1) crystal system: hexagonal
x	intensity
5	0
5.22	5.2238
5.44	0.888405
5.66	18.6177
5.88	6.80632
6.1	6.47358
6.32	2.38926
6.54	5.04397
6.76	13.9408
6.98	7.4831
7.2	22.1489
7.42	7.95479
7.64	17.9743
7.86	9.43457
8.08	6.01258
8.3	6.37072
8.52	8.69418
8.74	1.88756
8.96	4.14881
9.18	0.812222
9.4	18.2928
9.62	0.803149
9.84	8.88124
10.06	3.30304
10.28	0.574765
10.5	12.5923
10.72	8.93505
10.94	10.1719
11.16	1.54329
11.38	8.85317
11.6	7.21082
11.82	4.59058
12.04	4.974
12.26	5.23269
12.48	5.3905
12.7	2.55594
12.92	6.67439
13.14	7.917
13.36	8.27631
13.58	2.5871
13.8	6.59451
14.02	6.74039
14.24	3.81552
14.46	4.83448
14.68	3.9575
14.9	1.02043
15.12	6.02752
15.34	2.09564
15.56	6.87119
15.78	6.63281
16	5.44582
16.22	4.30538
16.44	1.36252
16.66	2.24046
16.88	36.3333
17.1	0.244784
17.32	1.28916
17.54	6.4675
17.76	6.42518
17.98	0.479793
18.2	6.69484
18.42	2.87412
18.64	7.89969
18.86	24.9243
19.08	2.89101
19.3	0.183555
19.52	4.95785
19.74	2.8595
19.96	4.03221
20.18	5.09079
20.4	4.1077
20.62	7.95958
20.84	7.8029
21.06	8.93084
21.28	2.08518
21.5	4.12414
21.72	9.24213
21.94	11.1938
22.16	2.26023
22.38	3.22291
22.6	6.32502
22.82	9.40003
23.04	9.73669
23.26	8.8498
23.48	7.81932
23.7	3.01638
23.92	9.91281
24.14	5.89347
24.36	6.7906
24.58	4.70413
24.8	2.39296
25.02	3.27267
25.24	5.02837
25.46	9.75185
25.68	3.88347
25.9	352.616
26.12	13.251
26.34	3.34345
26.56	0.278807
26.78	0.173569
27	6.01329
27.22	6.87322
27.44	1.66395
27.66	4.54732
27.88	2.39131
28.1	17.0271
28.32	3.18079
28.54	16.2749
28.76	5.27579
28.98	83.3827
29.2	3.78961
29.42	4.21589
29.64	7.58617
29.86	4.84582
30.08	1.68968
30.3	0.685865
30.52	3.30364
30.74	6.43706
30.96	0.707376
31.18	2.89131
31.4	6.18888
31.62	19.0504
31.84	288.178
32.06	26.5893
32.28	173.354
32.5	7.40565
32.72	7.43768
32.94	480.634
33.16	14.0796
33.38	1.06255
33.6	8.86465
33.82	1.55504
34.04	66.0067
34.26	10.5768
34.48	6.05753
34.7	8.11922
34.92	7.36396
35.14	3.64604
35.36	3.21226
35.58	24.3955
35.8	3.31114
36.02	4.327
36.24	2.66815
36.46	7.89827
36.68	8.1879
36.9	7.51142
37.12	3.79277
37.34	10.8465
37.56	2.69482
37.78	1.59981
38	1.51404
38.22	5.276
38.44	0.098387
38.66	7.47143
38.88	2.20382
39.1	4.10015
39.32	30.8751
39.54	5.52074
39.76	22.372
39.98	26.3258
40.2	4.43748
40.42	6.01676
40.64	5.12056
40.86	4.25327
41.08	0.598411
41.3	2.5468
41.52	9.78579
41.74	4.76176
41.96	9.95297
42.18	5.96408
42.4	3.86883
42.62	2.8548
42.84	4.33356
43.06	5.47336
43.28	6.43081
43.5	5.88739
43.72	10.9356
43.94	13.7292
44.16	5.64117
44.38	8.54952
44.6	2.24268
44.82	4.63471
45.04	0.583781
45.26	10.5059
45.48	31.2427
45.7	4.17576
45.92	0.595174
46.14	0.671768
46.36	6.94942
46.58	10.8479
46.8	47.0092
47.02	3.75645
47.24	4.92452
47.46	4.78403
47.68	5.68674
47.9	1.68513
48.12	114.122
48.34	2.97831
48.56	12.3993
48.78	6.94704
49	5.06578
49.22	6.6507
49.44	41.3965
49.66	123.06
49.88	11.0959
50.1	1.05715
50.32	3.79302
50.54	102.464
50.76	6.10128
50.98	2.22783
51.2	11.2963
51.42	60.1189
51.64	1.78729
51.86	8.15847
52.08	48.359
52.3	21.433
52.52	2.67753
52.74	6.24112
52.96	7.35515
53.18	23.0758
53.4	40.3879
53.62	6.97028
53.84	4.36695
54.06	5.33142
54.28	6.42391
54.5	11.6186
54.72	3.74363
54.94	4.70409
55.16	3.62596
55.38	3.58506
55.6	4.66491
55.82	5.6352
56.04	22.1375
56.26	9.86264
56.48	0.618882
56.7	6.5529
56.92	3.48835
57.14	30.4783
57.36	10.4596
57.58	2.45349
57.8	2.70502
58.02	1.50652
58.24	8.43736
58.46	4.94474
58.68	3.01427
58.9	1.90856
59.12	3.94546
59.34	4.97884
59.56	0.953955
59.78	5.22373
60	35.0487
60.22	0.938238
60.44	18.1071
60.66	11.0036
60.88	2.25106
61.1	1.05776
61.32	2.01247
61.54	14.3128
61.76	19.2052
61.98	2.06636
62.2	4.7066
62.42	0.541487
62.64	5.2243
62.86	2.96181
63.08	11.7135
63.3	0.416887
63.52	2.17369
63.74	6.05343
63.96	24.6349
64.18	50.6697
64.4	21.8541
64.62	5.40756
64.84	4.66852
65.06	58.089
65.28	24.3999
65.5	3.73166
65.72	2.2693
65.94	2.39655
66.16	2.64093
66.38	13.9138
66.6	7.01749
66.82	2.3635
67.04	0.302202
67.26	3.28485
67.48	3.19318
67.7	9.27709
67.92	0.672148
68.14	4.08321
68.36	2.98747
68.58	6.94592
68.8	7.84708
69.02	4.84716
69.24	2.54378
69.46	2.75135
69.68	14.7728
69.9	8.76327
70.12	0.828261
70.34	0.97223
70.56	2.89751
70.78	3.86445
71	3.88121
71.22	4.83567
71.44	4.65935
71.66	21.5144
71.88	18.3868
72.1	2.29506
72.32	17.397
72.54	8.46173
72.76	4.35348
72.98	12.3262
73.2	2.32411
73.42	1.57429
73.64	7.60338
73.86	7.55624
74.08	18.424
74.3	8.41789
74.52	3.31664
74.74	9.77686
74.96	7.45424
75.18	8.58514
75.4	6.42953
75.62	27.4225
75.84	22.0637
76.06	7.90036
76.28	7.78506
76.5	9.84054
76.72	6.10912
76.94	3.10452
77.16	12.1579
77.38	10.2662
77.6	1.13287
77.82	1.3118
78.04	8.23187
78.26	18.5852
78.48	17.9638
78.7	5.54502
78.92	3.6744
79.14	3.52375
79.36	4.73596
79.58	2.0632
79.8	2.89796
80.02	7.97877
80.24	6.03714
80.46	3.0722
80.68	1.75694
80.9	5.44489
81.12	6.9081
81.34	5.74483
81.56	4.37538
81.78	10.2659
82	5.02431
82.22	6.76738
82.44	2.65991
82.66	4.88068
82.88	1.2728
83.1	6.88419
83.32	6.87809
83.54	8.91824
83.76	8.96016
83.98	2.29662
84.2	6.47465
84.42	9.6184
84.64	8.88768
84.86	2.04773
85.08	1.11067
85.3	5.24553
85.52	11.4666
85.74	9.49102
85.96	5.66991
86.18	10.6215
86.4	0.285338
86.62	0.054377
86.84	3.93382
87.06	4.62766
87.28	8.42258
87.5	33.1412
87.72	10.7425
87.94	7.4951
88.16	7.54343
88.38	9.47523
88.6	25.8661
88.82	12.2532
89.04	3.43812
89.26	3.02358
89.48	1.8348
89.7	6.84645
89.92	3.15003
