Measurement: Powder, Xray Data XY Processed
Mineral: Ilsemannite
Rruff sample: R070513
Ideal chemistry: Mo^4+^Mo^6+^_2_O_8_nH_2_O
Locality: Osamu Utsumi Mine, Po√ßos de Caldas, Minas Gerais, Brazil
Source: Michael Scott
Description: Pale blue vitreous coating
Diffraction sample description: Powder, using Mo radiation
x	intensity
5.46	0
5.54	7.71756
5.62	18.2735
5.7	16.4665
5.78	13.7631
5.86	0.249786
5.94	7.64185
6.02	21.8327
6.1	14.6124
6.18	16.2254
6.26	21.6645
6.34	31.986
6.42	19.3419
6.5	22.6466
6.58	18.8333
6.66	27.6858
6.74	25.2479
6.82	24.1561
6.9	21.8204
6.98	24.0853
7.06	24.2561
7.14	10.6602
7.22	7.85407
7.3	5.53607
7.38	2.27133
7.46	9.76587
7.54	0.711517
7.62	4.31628
7.7	6.81454
7.78	12.8242
7.86	12.7134
7.94	1.82553
8.02	5.96487
8.1	3.89768
8.18	3.62805
8.26	3.3085
8.34	4.16458
8.42	4.70215
8.5	6.61233
8.58	6.83267
8.66	3.27408
8.74	8.67313
8.82	7.16327
8.9	14.4555
8.98	34.5016
9.06	35.6184
9.14	49.2313
9.22	58.2888
9.3	50.0192
9.38	43.2822
9.46	35.7293
9.54	34.7874
9.62	39.4996
9.7	45.9641
9.78	32.9172
9.86	33.5798
9.94	19.3295
10.02	28.7777
10.1	18.0308
10.18	22.0223
10.26	16.8482
10.34	13.7166
10.42	6.81244
10.5	15.5476
10.58	15.6659
10.66	15.6263
10.74	24.7712
10.82	18.777
10.9	18.5836
10.98	9.8418
11.06	24.356
11.14	19.9108
11.22	20.1068
11.3	20.3287
11.38	25.9337
11.46	33.9427
11.54	40.1605
11.62	46.5079
11.7	47.3941
11.78	40.7222
11.86	44.6874
11.94	56.544
12.02	69.5903
12.1	80.8715
12.18	81.0525
12.26	79.7281
12.34	78.7819
12.42	64.5772
12.5	62.9656
12.58	59.632
12.66	59.8409
12.74	70.809
12.82	66.0053
12.9	60.9871
12.98	61.239
13.06	67.7582
13.14	58.0987
13.22	69.683
13.3	74.3316
13.38	68.5636
13.46	69.8268
13.54	67.8541
13.62	63.2146
13.7	61.1208
13.78	62.6224
13.86	55.7089
13.94	50.9716
14.02	49.7547
14.1	52.5207
14.18	52.8052
14.26	62.4126
14.34	66.9131
14.42	56.4625
14.5	53.557
14.58	39.5277
14.66	50.3986
14.74	37.1338
14.82	37.8877
14.9	32.2813
14.98	35.794
15.06	40.7167
15.14	39.0119
15.22	39.6339
15.3	38.8533
15.38	23.1948
15.46	18.2287
15.54	16.9801
15.62	27.5435
15.7	15.1197
15.78	25.2928
15.86	37.6719
15.94	38.7478
16.02	31.991
16.1	27.5636
16.18	25.0717
16.26	12.9564
16.34	6.72794
16.42	1.76517
16.5	0.53598
16.58	1.30725
16.66	1.17746
16.74	4.43341
16.82	3.12012
16.9	0.160431
16.98	1.26978
17.06	1.56918
17.14	1.81451
17.22	1.79123
17.3	2.33518
17.38	3.76489
17.46	0.906067
17.54	5.43994
17.62	1.73157
17.7	4.85498
17.78	0.484131
17.86	7.65179
17.94	9.0433
18.02	9.75281
18.1	8.50729
18.18	18.8998
18.26	24.2163
18.34	23.0858
18.42	28.7427
18.5	24.6616
18.58	21.68
18.66	24.0313
18.74	29.8879
18.82	32.5987
18.9	34.497
18.98	33.8981
19.06	32.7663
19.14	36.1588
19.22	41.2188
19.3	41.7318
19.38	31.2904
19.46	36.4956
19.54	43.83
19.62	51.1114
19.7	48.6765
19.78	32.1498
19.86	31.0196
19.94	26.5254
20.02	30.2511
20.1	20.5344
20.18	24.202
20.26	25.0618
20.34	14.3187
20.42	24.9251
20.5	16.1202
20.58	18.4921
20.66	17.6747
20.74	15.0403
20.82	11.435
20.9	11.7584
20.98	13.9073
21.06	16.1473
21.14	10.1088
21.22	14.7909
21.3	14.853
21.38	15.6693
21.46	17.2388
21.54	10.8617
21.62	10.9498
21.7	15.0823
21.78	5.05457
21.86	4.10168
21.94	8.82199
22.02	8.87134
22.1	2.57281
22.18	0.481964
22.26	3.27508
22.34	6.51709
22.42	0.409607
22.5	3.81241
22.58	3.64746
22.66	1.22232
22.74	4.93671
22.82	7.31003
22.9	3.72241
22.98	7.64804
23.06	8.40167
23.14	18.2693
23.22	8.61395
23.3	12.2871
23.38	3.72342
23.46	8.14511
23.54	8.70004
23.62	19.3228
23.7	16.1232
23.78	17.61
23.86	12.4386
23.94	9.05237
24.02	10.411
24.1	12.1559
24.18	23.4359
24.26	15.782
24.34	8.53363
24.42	7.75281
24.5	7.58578
24.58	19.9957
24.66	14.1009
24.74	15.9977
24.82	17.0851
24.9	24.1984
24.98	30.376
25.06	41.9528
25.14	42.4363
25.22	25.6413
25.3	10.3693
25.38	8.23852
25.46	3.08756
25.54	2.79355
25.62	3.90488
25.7	10.2192
25.78	16.1762
25.86	12.7725
25.94	3.98404
26.02	2.77579
26.1	18.389
26.18	6.05994
26.26	6.26205
26.34	18.1561
26.42	8.34232
26.5	2.30945
26.58	0.310791
26.66	1.47476
26.74	14.8996
26.82	15.944
26.9	12.447
26.98	3.90237
27.06	18.898
27.14	15.9516
27.22	12.0909
27.3	22.5466
27.38	24.6649
27.46	25.3101
27.54	27.2516
27.62	21.0987
27.7	13.3595
27.78	12.4807
27.86	13.0195
27.94	5.34897
28.02	8.37837
28.1	14.6234
28.18	9.87534
28.26	11.5611
28.34	19.97
28.42	23.8841
28.5	1.14938
28.58	8.46278
28.66	8.75363
28.74	17.2561
28.82	26.8783
28.9	16.5376
28.98	8.64749
29.06	4.42677
29.14	8.53017
29.22	6.7598
29.3	12.2324
29.38	8.3045
29.46	7.89406
29.54	2.61545
29.62	20.1631
29.7	7.34409
29.78	3.83278
29.86	8.74779
29.94	12.1184
30.02	7.53838
30.1	5.29752
30.18	6.3522
30.26	21.3956
30.34	15.236
30.42	21.6732
30.5	16.004
30.58	8.83299
30.66	0.088593
30.74	2.99345
30.82	5.85005
30.9	3.31642
30.98	1.9057
31.06	8.79483
31.14	6.88646
31.22	6.08617
31.3	6.87579
31.38	7.92563
31.46	10.4273
31.54	9.93414
31.62	18.4546
31.7	25.1127
31.78	22.8827
31.86	9.3331
31.94	1.5625
32.02	17.7714
32.1	20.2649
32.18	20.3877
32.26	13.4946
32.34	8.97459
32.42	9.45561
32.5	10.3337
32.58	14.4194
32.66	12.9676
32.74	3.28653
32.82	10.6332
32.9	10.8159
32.98	17.0371
33.06	8.01025
33.14	8.29695
33.22	11.7104
33.3	6.29756
33.38	9.50616
33.46	16.1813
33.54	10.3961
33.62	1.96362
33.7	3.50497
33.78	0.224152
33.86	23.7081
33.94	15.2079
34.02	7.7458
34.1	0.461884
34.18	6.56454
34.26	7.55705
34.34	18.6111
34.42	16.1036
34.5	8.2693
34.58	6.47923
34.66	11.3861
34.74	2.27138
34.82	6.13693
34.9	5.53465
34.98	7.35754
35.06	5.65149
35.14	0.477203
35.22	6.55899
35.3	6.05614
35.38	2.60199
35.46	2.10591
