Measurement: Powder, Xray Data XY Processed
Mineral: Ilvaite
Rruff sample: R050040
Ideal chemistry: CaFe^2+^_2_Fe^3+^OSi_2_O_7_(OH)
Locality: Capo Calamita, Isle of Elba, Italy
Source: University of Arizona Mineral Museum
Description: Brown fragment
Diffraction sample description: Powder
Measured chemistry: Ca_1.00_(Fe^2+^_1.89_Mn_0.10_Mg_0.01_)_Î£=2_Fe^3+^_1.00_OSi_2.00_O_7_(OH); trace amounts of Al; OH estimated by charge balance
Cell parameters: a: 12.998(1) b: 8.7860(7) c: 5.8409(4) alpha: 90. beta: 90.407(3) gamma: 90. volume: 667.04(5) crystal system: monoclinic
x	intensity
5	0
5.22	12.799
5.44	17.397
5.66	4.32
5.88	20.309
6.1	8.575
6.32	7.211
6.54	8.891
6.76	10.445
6.98	15.966
7.2	30.734
7.42	18.345
7.64	24.943
7.86	33.566
8.08	26.642
8.3	29.845
8.52	17.998
8.74	32.389
8.96	10.622
9.18	10.981
9.4	18.699
9.62	29.807
9.84	5.495
10.06	17.718
10.28	3.882
10.5	27.85
10.72	19.308
10.94	33.229
11.16	1.853
11.38	8.582
11.6	16.222
11.82	17.423
12.04	36.808
12.26	31.506
12.48	5.215
12.7	23.071
12.92	6.244
13.14	20.071
13.36	26.724
13.58	49.622
13.8	1.334
14.02	23.309
14.24	17.83
14.46	17.77
14.68	0.378
14.9	17.307
15.12	30.93
15.34	14.192
15.56	22.384
15.78	11.076
16	31.661
16.22	18.114
16.44	13.181
16.66	36.949
16.88	11.822
17.1	16.252
17.32	12.61
17.54	16.03
17.76	5.773
17.98	3.45
18.2	35.59
18.42	7.274
18.64	25.806
18.86	6.427
19.08	18.749
19.3	7.826
19.52	25.083
19.74	42.248
19.96	5.26
20.18	7.376
20.4	8.38
20.62	31.445
20.84	6.144
21.06	26.789
21.28	46.623
21.5	21.922
21.72	20.711
21.94	12.904
22.16	5.286
22.38	13.903
22.6	26.642
22.82	47.184
23.04	23.139
23.26	22.353
23.48	1.835
23.7	16.1
23.92	20.776
24.14	17.302
24.36	25.935
24.58	14.757
24.8	23.945
25.02	16.629
25.24	7.693
25.46	8.771
25.68	32.971
25.9	10.048
26.12	30.326
26.34	30.163
26.56	15.198
26.78	6.784
27	21.224
27.22	30.985
27.44	41.365
27.66	18.682
27.88	7.34
28.1	22.954
28.32	11.685
28.54	13.577
28.76	4.506
28.98	6.712
29.2	24.643
29.42	40.003
29.64	30.115
29.86	17.024
30.08	1.496
30.3	27.076
30.52	4.557
30.74	18.905
30.96	8.327
31.18	8.31
31.4	117.445
31.62	74.376
31.84	34.669
32.06	28.311
32.28	16.416
32.5	18.691
32.72	82.586
32.94	151.267
33.16	19.577
33.38	35.43
33.6	95.501
33.82	22.545
34.04	8.371
34.26	31.893
34.48	14.226
34.7	21.218
34.92	33.746
35.14	17.099
35.36	22.935
35.58	12.496
35.8	0.691
36.02	0.281
36.24	16.759
36.46	16.662
36.68	20.889
36.9	66.243
37.12	27.551
37.34	10.011
37.56	25.144
37.78	16.014
38	16.231
38.22	9.872
38.44	36.786
38.66	45.653
38.88	9.357
39.1	13.307
39.32	50.907
39.54	5.169
39.76	6.735
39.98	13.199
40.2	28.762
40.42	43.599
40.64	18.183
40.86	2.688
41.08	24.619
41.3	33.147
41.52	45.078
41.74	34.577
41.96	19.313
42.18	19.932
42.4	37.772
42.62	20.122
42.84	86.453
43.06	14.748
43.28	12.31
43.5	44.109
43.72	14.006
43.94	6.448
44.16	16.509
44.38	10.959
44.6	1.31
44.82	18.472
45.04	35.719
45.26	28.683
45.48	25.847
45.7	31.878
45.92	13.229
46.14	11.581
46.36	13.134
46.58	20.78
46.8	10.039
47.02	6.825
47.24	8.378
47.46	16.497
47.68	8.025
47.9	42.559
48.12	13.66
48.34	0.262
48.56	28.799
48.78	32.208
49	13.108
49.22	34.462
49.44	7.185
49.66	7.584
49.88	6.893
50.1	17.732
50.32	34.047
50.54	3.038
50.76	16.1
50.98	9.086
51.2	26.551
51.42	24.417
51.64	4.447
51.86	28.86
52.08	55.624
52.3	38.67
52.52	18.121
52.74	20.707
52.96	28.455
53.18	39.809
53.4	11.536
53.62	28.466
53.84	18.565
54.06	0.65
54.28	26.012
54.5	17.744
54.72	28.994
54.94	14.286
55.16	0.492
55.38	0.328
55.6	29.005
55.82	14.822
56.04	9.694
56.26	23.699
56.48	42.685
56.7	31.135
56.92	17.91
57.14	6.996
57.36	16.147
57.58	4.3
57.8	36.189
58.02	2.402
58.24	28.797
58.46	17.296
58.68	4.647
58.9	24.934
59.12	12.693
59.34	20.292
59.56	31.124
59.78	11.111
60	3.3
60.22	22.74
60.44	15.979
60.66	42.187
60.88	19.991
61.1	3.574
61.32	1.576
61.54	24.391
61.76	57.84
61.98	60.626
62.2	13.375
62.42	12.118
62.64	13.601
62.86	25.042
63.08	29.291
63.3	31.005
63.52	83.681
63.74	32.148
63.96	23.843
64.18	11.767
64.4	29.858
64.62	15.125
64.84	15.082
65.06	17.005
65.28	6.019
65.5	23.234
65.72	41.526
65.94	11.589
66.16	8.804
66.38	0.119
66.6	29.916
66.82	30.231
67.04	13.632
67.26	20.75
67.48	19.42
67.7	32.264
67.92	6.619
68.14	29.811
68.36	12.077
68.58	30.301
68.8	28.394
69.02	38.837
69.24	26.293
69.46	8.372
69.68	6.423
69.9	19.308
70.12	0.928
70.34	14.607
70.56	30.379
70.78	18.74
71	20.076
71.22	4.694
71.44	25.865
71.66	25.214
71.88	15.511
72.1	10.295
72.32	12.207
72.54	13.176
72.76	0.997
72.98	21.985
73.2	4.089
73.42	39.255
73.64	11.326
73.86	39.459
74.08	36.791
74.3	21.731
74.52	19.707
74.74	16.368
74.96	15.836
75.18	28.131
75.4	26.564
75.62	16.514
75.84	27.254
76.06	9.209
76.28	9.597
76.5	32.183
76.72	22.31
76.94	2.666
77.16	31.074
77.38	36.13
77.6	11.163
77.82	4.016
78.04	21.599
78.26	23.723
78.48	21.114
78.7	7.479
78.92	17.42
79.14	4.676
79.36	4.56
79.58	17.066
79.8	27.936
80.02	15.077
80.24	16.872
80.46	9.511
80.68	12.498
80.9	33.691
81.12	26.109
81.34	9.718
81.56	18.355
81.78	30.575
82	16.381
82.22	11.753
82.44	27.97
82.66	15.283
82.88	24.18
83.1	17.788
83.32	18.249
83.54	29.938
83.76	17.124
83.98	1.567
84.2	21.763
84.42	22.316
84.64	30.137
84.86	40.243
85.08	31.287
85.3	49.591
85.52	38.404
85.74	19.605
85.96	27.659
86.18	9.264
86.4	4.086
86.62	38.58
86.84	18.719
87.06	36.684
87.28	39.364
87.5	13.481
87.72	16.449
87.94	27.419
88.16	20.488
88.38	16.521
88.6	12.744
88.82	1.894
89.04	20.996
89.26	15.487
89.48	17.641
89.7	26.516
89.92	0.346
