Measurement: Powder, Xray Data XY Processed
Mineral: Ilvaite
Rruff sample: R060474
Ideal chemistry: CaFe^2+^_2_Fe^3+^OSi_2_O_7_(OH)
Locality: Dal 'Negorsk, Primorskiy, Kray, Russia
Source: Michael Scott
Description: Steel gray prismatic crystal
Diffraction sample description: Powder, cell parameters are from single crystal
Measured chemistry: Ca_1.00_(Fe^2+^_1.29_Mn_0.71_)_Σ=2_(Fe^3+^_0.93_Al_0.07_)_Σ=1_OSi_2.00_O_7_(OH); trace amounts of Mg; OH estimated by charge balance
Cell parameters: a: 12.993(2) b: 8.843(1) c: 5.846(1) alpha: 90 beta: 90.24(9) gamma: 90 volume: 671.6(2) crystal system: orthorhombic
x	intensity
5	0
5.22	12.7636
5.44	2.05417
5.66	7.88156
5.88	20.3783
6.1	6.259
6.32	6.91581
6.54	13.7872
6.76	12.9527
6.98	1.4607
7.2	18.6001
7.42	21.4166
7.64	0.164146
7.86	14.8369
8.08	9.93421
8.3	5.13006
8.52	17.7232
8.74	15.5701
8.96	7.99392
9.18	1.55375
9.4	5.80379
9.62	12.1889
9.84	24.3409
10.06	10.6522
10.28	15.8224
10.5	11.1287
10.72	12.8912
10.94	4.43238
11.16	14.6425
11.38	15.9112
11.6	10.9561
11.82	17.4035
12.04	4.85371
12.26	27.2648
12.48	3.42423
12.7	13.1033
12.92	0.843987
13.14	4.72514
13.36	6.44384
13.58	0.224365
13.8	16.6032
14.02	3.73899
14.24	4.466
14.46	2.0452
14.68	19.4208
14.9	15.1217
15.12	1.21979
15.34	5.99486
15.56	21.4768
15.78	7.07109
16	23.6317
16.22	3.94252
16.44	33.5452
16.66	11.6085
16.88	17.4221
17.1	14.8249
17.32	8.69527
17.54	10.0106
17.76	11.1482
17.98	12.6184
18.2	6.19853
18.42	6.56252
18.64	15.0329
18.86	0.47179
19.08	25.2272
19.3	19.1993
19.52	23.2491
19.74	15.475
19.96	15.0388
20.18	14.2971
20.4	13.1181
20.62	25.7512
20.84	23.1103
21.06	12.133
21.28	16.4332
21.5	17.8772
21.72	17.5298
21.94	18.3509
22.16	18.8842
22.38	4.73212
22.6	3.445
22.82	29.5314
23.04	12.3847
23.26	13.1443
23.48	22.4888
23.7	22.9723
23.92	20.9194
24.14	10.7731
24.36	9.95053
24.58	22.906
24.8	17.3551
25.02	8.06472
25.24	5.86848
25.46	10.8076
25.68	28.1992
25.9	1.11705
26.12	28.7153
26.34	18.1343
26.56	7.72738
26.78	10.6119
27	9.73454
27.22	14.6608
27.44	25.2777
27.66	17.6493
27.88	9.30306
28.1	18.332
28.32	7.18203
28.54	19.537
28.76	10.6184
28.98	2.35039
29.2	1.60751
29.42	5.66455
29.64	5.74437
29.86	0.805824
30.08	17.808
30.3	8.70576
30.52	0.945217
30.74	0.933895
30.96	0.416473
31.18	38.4109
31.4	27.4971
31.62	34.648
31.84	18.5867
32.06	12.495
32.28	7.4004
32.5	20.5484
32.72	14.8894
32.94	29.0809
33.16	52.9613
33.38	31.3424
33.6	13.4489
33.82	15.6436
34.04	6.82335
34.26	10.0504
34.48	14.1533
34.7	4.19051
34.92	9.23089
35.14	3.07384
35.36	13.0145
35.58	7.08887
35.8	22.4208
36.02	20.7673
36.24	10.207
36.46	7.19285
36.68	0.060501
36.9	21.2813
37.12	13.4566
37.34	13.3029
37.56	19.2539
37.78	16.3154
38	8.5109
38.22	3.56681
38.44	9.24411
38.66	26.8015
38.88	14.4383
39.1	17.586
39.32	11.3692
39.54	20.4641
39.76	9.23086
39.98	11.8095
40.2	22.658
40.42	3.28867
40.64	0.079632
40.86	9.45392
41.08	28.2413
41.3	35.3486
41.52	34.0357
41.74	18.6261
41.96	14.6221
42.18	5.93507
42.4	3.95732
42.62	18.0065
42.84	48.2704
43.06	15.1289
43.28	3.54848
43.5	15.9356
43.72	10.5036
43.94	4.80746
44.16	3.94958
44.38	32.6769
44.6	14.8006
44.82	14.3815
45.04	30.2175
45.26	12.7632
45.48	12.1944
45.7	15.8797
45.92	1.23177
46.14	8.78449
46.36	14.7261
46.58	16.5347
46.8	9.72539
47.02	14.503
47.24	21.4402
47.46	29.8427
47.68	15.0283
47.9	27.2949
48.12	10.3336
48.34	38.0363
48.56	14.1894
48.78	9.35526
49	0.588669
49.22	19.5835
49.44	8.47962
49.66	15.8751
49.88	17.1389
50.1	10.342
50.32	19.1058
50.54	18.0739
50.76	1.34591
50.98	24.2598
51.2	2.13528
51.42	2.04029
51.64	19.2864
51.86	13.9562
52.08	12.7578
52.3	18.9386
52.52	17.2292
52.74	8.95605
52.96	15.1374
53.18	10.6315
53.4	14.1496
53.62	9.24878
53.84	9.33928
54.06	24.2778
54.28	29.1656
54.5	7.57263
54.72	13.3716
54.94	21.52
55.16	16.6341
55.38	19.4402
55.6	22.613
55.82	15.8037
56.04	18.149
56.26	26.8558
56.48	16.3784
56.7	5.96109
56.92	18.3612
57.14	10.6466
57.36	27.5153
57.58	15.3359
57.8	3.13519
58.02	6.95967
58.24	17.76
58.46	7.2176
58.68	25.528
58.9	26.5249
59.12	7.31445
59.34	1.64872
59.56	6.21579
59.78	17.9994
60	6.92622
60.22	10.8241
60.44	33.0606
60.66	27.0025
60.88	14.9276
61.1	4.58847
61.32	24.4011
61.54	2.32442
61.76	18.492
61.98	26.087
62.2	24.8219
62.42	11.4843
62.64	18.1775
62.86	5.24971
63.08	4.31585
63.3	24.1309
63.52	9.1528
63.74	11.001
63.96	8.78339
64.18	13.4864
64.4	6.81417
64.62	24.4635
64.84	8.83726
65.06	4.39961
65.28	21.5862
65.5	12.5844
65.72	27.7567
65.94	14.259
66.16	18.986
66.38	16.6673
66.6	7.63223
66.82	19.3598
67.04	9.23
67.26	27.4012
67.48	1.7724
67.7	12.1797
67.92	19.1709
68.14	17.0042
68.36	20.9639
68.58	14.0852
68.8	23.2786
69.02	15.4678
69.24	8.82634
69.46	15.9607
69.68	7.52961
69.9	11.1364
70.12	17.2255
70.34	24.993
70.56	20.3317
70.78	16.1738
71	10.3778
71.22	5.14336
71.44	16.736
71.66	17.5212
71.88	13.2188
72.1	16.883
72.32	21.028
72.54	25.6389
72.76	25.6407
72.98	4.31534
73.2	0.809399
73.42	12.3671
73.64	2.77826
73.86	16.79
74.08	18.9442
74.3	3.76153
74.52	0.893707
74.74	9.05661
74.96	11.2777
75.18	8.60146
75.4	3.76404
75.62	7.95851
75.84	11.498
76.06	2.96889
76.28	11.0957
76.5	8.81271
76.72	5.56762
76.94	2.40089
77.16	9.95005
77.38	23.9693
77.6	19.9158
77.82	22.5044
78.04	1.80981
78.26	20.1341
78.48	16.4984
78.7	6.2482
78.92	12.1421
79.14	1.51154
79.36	16.4991
79.58	26.6955
79.8	27.6985
80.02	18.1885
80.24	18.6496
80.46	0.314568
80.68	3.61427
80.9	34.6998
81.12	16.6855
81.34	17.96
81.56	17.2157
81.78	15.0843
82	11.7716
82.22	9.60465
82.44	24.7223
82.66	22.5253
82.88	1.17749
83.1	22.6047
83.32	9.10661
83.54	15.3911
83.76	6.52178
83.98	1.19779
84.2	28.1356
84.42	6.22809
84.64	7.72909
84.86	33.6226
85.08	1.12864
85.3	11.2419
85.52	1.23408
85.74	9.09144
85.96	12.088
86.18	12.9682
86.4	5.81976
86.62	14.2893
86.84	13.8517
87.06	20.5115
87.28	22.5514
87.5	19.6661
87.72	12.8041
87.94	14.7317
88.16	11.2899
88.38	29.1292
88.6	14.7554
88.82	3.96192
89.04	12.8799
89.26	22.346
89.48	14.7521
89.7	19.2174
89.92	13.9347
