Measurement: Powder, Xray Data XY Processed
Mineral: Inderite
Rruff sample: R050195
Ideal chemistry: MgB_3_O_3_(OH)_5_5H_2_O
Locality: Boron, Kern County, California, USA
Source: Dave Bunk Minerals
Description: Colorless prismatic crystal
Diffraction sample description: Powder
Measured chemistry: Mg_1.00_B_3.00_O_3_(OH)_5_Â·5H_2_O ; Mg measured, only
Cell parameters: a: 6.8128(2) b: 13.0971(4) c: 12.0189(5) alpha: 90. beta: 104.545(3) gamma: 90. volume: 1038.05(5) crystal system: monoclinic
x	intensity
5	0
5.22	5.83223
5.44	8.55862
5.66	11.5479
5.88	4.32918
6.1	11.9392
6.32	8.78744
6.54	11.8365
6.76	6.58249
6.98	10.371
7.2	8.38809
7.42	10.9156
7.64	5.98152
7.86	14.3043
8.08	7.71874
8.3	14.2787
8.52	9.62137
8.74	2.56228
8.96	5.15763
9.18	10.0363
9.4	2.86657
9.62	1.3752
9.84	14.2281
10.06	39.645
10.28	39.0336
10.5	12.3012
10.72	7.20303
10.94	3.31822
11.16	5.75141
11.38	0.851962
11.6	9.47557
11.82	7.5478
12.04	0.456404
12.26	7.4272
12.48	2.05194
12.7	8.96891
12.92	5.45226
13.14	7.40814
13.36	104.679
13.58	86.2837
13.8	9.92383
14.02	6.0126
14.24	3.64205
14.46	2.30612
14.68	11.8741
14.9	12.5435
15.12	125.576
15.34	52.5315
15.56	522.824
15.78	6.74616
16	12.4688
16.22	1.84381
16.44	3.78183
16.66	19.3401
16.88	2.5554
17.1	16.2062
17.32	7.91209
17.54	161.336
17.76	86.7823
17.98	17.4292
18.2	6.95131
18.42	11.8116
18.64	3.76282
18.86	18.1255
19.08	46.1486
19.3	116.431
19.52	3.44151
19.74	10.1866
19.96	6.98173
20.18	2.70075
20.4	137.997
20.62	12.6772
20.84	3.16112
21.06	1.88392
21.28	7.99406
21.5	0.363813
21.72	3.16395
21.94	13.5275
22.16	16.7156
22.38	11.5516
22.6	2.7191
22.82	25.0981
23.04	0.806288
23.26	11.3485
23.48	4.15486
23.7	12.6686
23.92	76.4838
24.14	12.1798
24.36	32.9591
24.58	44.0804
24.8	11.6801
25.02	7.01773
25.24	2.88302
25.46	29.5206
25.68	9.17326
25.9	6.93602
26.12	7.47868
26.34	8.56273
26.56	253.727
26.78	27.6262
27	33.1239
27.22	147.017
27.44	7.93827
27.66	13.0555
27.88	5.38128
28.1	10.2609
28.32	3.87835
28.54	18.3002
28.76	1.30947
28.98	10.5246
29.2	2.48024
29.42	28.5483
29.64	14.2317
29.86	1.84129
30.08	10.5559
30.3	36.2661
30.52	31.4771
30.74	172
30.96	29.5299
31.18	23.3232
31.4	13.4497
31.62	216.836
31.84	24.8055
32.06	1.57158
32.28	0.089146
32.5	4.58855
32.72	32.0952
32.94	0.559931
33.16	7.67303
33.38	75.6046
33.6	37.7176
33.82	97.7461
34.04	14.9031
34.26	11.427
34.48	83.8601
34.7	3.08318
34.92	20.707
35.14	144.923
35.36	16.6628
35.58	10.474
35.8	156.763
36.02	11.3299
36.24	3.3864
36.46	4.61722
36.68	5.04559
36.9	61.6261
37.12	52.8687
37.34	20.8518
37.56	28.1149
37.78	2.72717
38	5.0867
38.22	49.3879
38.44	52.5397
38.66	21.639
38.88	34.2021
39.1	15.275
39.32	5.5181
39.54	11.8646
39.76	1.28967
39.98	5.53586
40.2	3.40722
40.42	9.31595
40.64	17.3816
40.86	2.59509
41.08	0.716028
41.3	23.333
41.52	10.1458
41.74	11.0496
41.96	9.21196
42.18	35.8458
42.4	49.5669
42.62	23.9205
42.84	3.23203
43.06	6.27598
43.28	12.293
43.5	16.8885
43.72	21.7302
43.94	0.739017
44.16	16.4915
44.38	12.2741
44.6	16.3089
44.82	5.43861
45.04	14.9503
45.26	24.554
45.48	19.3068
45.7	33.0429
45.92	1.37304
46.14	0.709007
46.36	9.32517
46.58	17.9551
46.8	19.6878
47.02	12.514
47.24	25.5858
47.46	20.021
47.68	17.0331
47.9	25.3598
48.12	21.7205
48.34	7.66763
48.56	9.18882
48.78	25.6014
49	3.4425
49.22	13.7789
49.44	28.2039
49.66	9.0882
49.88	30.4516
50.1	22.1506
50.32	15.3776
50.54	23.166
50.76	10.2442
50.98	8.5804
51.2	3.01694
51.42	15.0339
51.64	12.7509
51.86	4.75852
52.08	15.9535
52.3	15.8263
52.52	20.0484
52.74	8.02197
52.96	0.630033
53.18	3.11359
53.4	10.9512
53.62	15.7988
53.84	15.6444
54.06	9.1614
54.28	7.41437
54.5	25.2759
54.72	30.3361
54.94	10.3698
55.16	5.64757
55.38	4.03817
55.6	9.33696
55.82	10.5044
56.04	6.89066
56.26	10.0667
56.48	0.645908
56.7	9.53514
56.92	13.7698
57.14	2.86482
57.36	0.087759
57.58	4.23694
57.8	14.7966
58.02	11.8895
58.24	9.46974
58.46	5.52473
58.68	2.06702
58.9	14.141
59.12	17.3563
59.34	1.57972
59.56	9.79874
59.78	10.4568
60	15.0737
60.22	13.1841
60.44	16.365
60.66	8.93455
60.88	0.839724
61.1	1.48319
61.32	4.45564
61.54	1.24964
61.76	14.4717
61.98	6.01379
62.2	21.0515
62.42	15.1414
62.64	7.20112
62.86	12.1791
63.08	8.59219
63.3	7.6549
63.52	3.90515
63.74	7.02502
63.96	9.2058
64.18	7.95127
64.4	8.5324
64.62	6.01798
64.84	1.96061
65.06	8.94154
65.28	12.9224
65.5	4.79635
65.72	8.92501
65.94	3.92283
66.16	10.058
66.38	3.24124
66.6	0.388523
66.82	4.55896
67.04	3.76521
67.26	9.05181
67.48	8.34987
67.7	0.568769
67.92	5.42985
68.14	9.59893
68.36	6.99916
68.58	1.94359
68.8	2.73499
69.02	9.5386
69.24	8.49645
69.46	8.63619
69.68	8.45744
69.9	4.74963
70.12	14.7989
70.34	17.6759
70.56	8.63138
70.78	8.24775
71	9.37986
71.22	8.5251
71.44	3.7812
71.66	0.059866
71.88	9.26373
72.1	0.951797
72.32	9.77119
72.54	8.00189
72.76	2.33453
72.98	15.5564
73.2	7.9329
73.42	3.05614
73.64	6.12226
73.86	11.3781
74.08	4.279
74.3	0.9505
74.52	6.47533
74.74	14.5681
74.96	9.4903
75.18	5.34145
75.4	15.2756
75.62	7.21921
75.84	5.57542
76.06	7.62577
76.28	4.49585
76.5	14.6064
76.72	1.82915
76.94	9.25172
77.16	12.1795
77.38	5.43821
77.6	7.57493
77.82	8.57617
78.04	7.42806
78.26	16.2672
78.48	9.31967
78.7	3.61071
78.92	16.8833
79.14	7.79393
79.36	7.58955
79.58	10.8141
79.8	1.3278
80.02	3.88203
80.24	11.0151
80.46	10.1289
80.68	10.0143
80.9	7.04481
81.12	8.76951
81.34	6.54823
81.56	2.57854
81.78	3.56692
82	0.326707
82.22	2.68144
82.44	5.80861
82.66	11.9948
82.88	0.976695
83.1	5.09262
83.32	3.18312
83.54	6.3938
83.76	4.47288
83.98	13.634
84.2	7.67807
84.42	8.57323
84.64	1.28148
84.86	3.63652
85.08	3.59275
85.3	4.7066
85.52	6.99457
85.74	0.966022
85.96	4.1629
86.18	5.23555
86.4	5.21254
86.62	7.3004
86.84	10.4115
87.06	3.4686
87.28	5.85961
87.5	4.85836
87.72	8.01875
87.94	4.19713
88.16	6.45904
88.38	7.5371
88.6	4.88592
88.82	7.9979
89.04	6.38007
89.26	7.35793
89.48	9.70664
89.7	11.1788
89.92	12.7662
