Measurement: Powder, Xray Data XY Processed
Mineral: Inesite
Rruff sample: R090030
Ideal chemistry: Ca_2_Mn^2+^_7_Si_10_O_28_(OH)_2_5H_2_O
Locality: Hale Creek Mine, Mad River Ridge, Hale Creek, Trinity County, California, USA
Source: James Shigley
Description: Clusters of pink slender chisel-shaped laths
Diffraction sample description: Powder
Cell parameters: a: 8.861(2) b: 9.2396(9) c: 11.952(2) alpha: 88.14(1) beta: 131.95(1) gamma: 96.70(1) volume: 721.3(1) crystal system: triclinic
x	intensity
5	0
5.22	27.0549
5.44	8.65376
5.66	18.4663
5.88	2.86976
6.1	6.34762
6.32	24.9264
6.54	7.89876
6.76	27.7391
6.98	13.3697
7.2	21.633
7.42	16.2804
7.64	4.83032
7.86	23.1606
8.08	8.90321
8.3	11.7629
8.52	23.4797
8.74	16.2116
8.96	5.63523
9.18	15.0543
9.4	52.384
9.62	626.503
9.84	37.231
10.06	16.6899
10.28	10.9993
10.5	4.98238
10.72	8.39062
10.94	4.01366
11.16	5.66502
11.38	13.4358
11.6	10.0374
11.82	15.1177
12.04	0.077583
12.26	21.835
12.48	11.7208
12.7	13.6831
12.92	23.4525
13.14	31.7868
13.36	19.5303
13.58	73.4226
13.8	26.0157
14.02	2.8905
14.24	3.88968
14.46	5.0788
14.68	11.128
14.9	11.1619
15.12	19.224
15.34	24.9133
15.56	29.9216
15.78	31.7456
16	6.6922
16.22	20.5132
16.44	12.1643
16.66	15.4747
16.88	18.3292
17.1	9.15792
17.32	10.4411
17.54	9.42781
17.76	10.8473
17.98	0.616661
18.2	14.5228
18.42	0.005936
18.64	9.29784
18.86	18.2502
19.08	1.06094
19.3	42.6589
19.52	12.6534
19.74	16.9356
19.96	9.75952
20.18	12.1939
20.4	7.2169
20.62	9.96593
20.84	22.0002
21.06	4.40526
21.28	4.87592
21.5	9.62937
21.72	23.4395
21.94	4.80469
22.16	65.8774
22.38	42.8961
22.6	9.79715
22.82	35.947
23.04	14.314
23.26	3.40754
23.48	19.0807
23.7	11.788
23.92	20.6618
24.14	23.8425
24.36	23.4091
24.58	14.2989
24.8	22.1902
25.02	17.9659
25.24	14.2083
25.46	6.95096
25.68	16.2519
25.9	4.50343
26.12	22.8954
26.34	12.1866
26.56	5.02764
26.78	11.4072
27	27.7899
27.22	30.0757
27.44	13.5354
27.66	7.96791
27.88	26.0566
28.1	21.4979
28.32	2.94268
28.54	9.85217
28.76	11.4099
28.98	14.3399
29.2	19.3434
29.42	15.916
29.64	14.6816
29.86	24.5518
30.08	8.09168
30.3	24.9433
30.52	155.165
30.74	77.5631
30.96	3.94715
31.18	18.3645
31.4	44.9449
31.62	97.3133
31.84	26.8307
32.06	5.72754
32.28	4.60916
32.5	28.5316
32.72	53.7464
32.94	35.2036
33.16	60.3594
33.38	27.3832
33.6	10.3589
33.82	22.6996
34.04	36.0118
34.26	1.86182
34.48	12.3915
34.7	12.8923
34.92	1.26623
35.14	32.6621
35.36	10.3758
35.58	29.6261
35.8	11.9316
36.02	13.4326
36.24	21.6848
36.46	26.6889
36.68	25.1007
36.9	25.4157
37.12	25.2087
37.34	15.163
37.56	37.568
37.78	21.5003
38	13.5965
38.22	20.7405
38.44	19.541
38.66	34.8242
38.88	4.62833
39.1	7.30288
39.32	9.3836
39.54	30.0678
39.76	0.141502
39.98	20.9926
40.2	2.71868
40.42	9.45363
40.64	2.90819
40.86	12.5876
41.08	17.006
41.3	81.4125
41.52	52.4289
41.74	13.84
41.96	2.58509
42.18	0.399879
42.4	18.4364
42.62	3.10388
42.84	7.52483
43.06	1.27283
43.28	6.79791
43.5	21.9978
43.72	11.8293
43.94	9.93018
44.16	23.8649
44.38	33.2834
44.6	12.9423
44.82	4.26833
45.04	7.59235
45.26	12.0625
45.48	10.3974
45.7	16.9724
45.92	16.0427
46.14	17.6018
46.36	11.5453
46.58	24.6395
46.8	10.7678
47.02	25.5046
47.24	11.6552
47.46	14.4574
47.68	14.6802
47.9	15.2907
48.12	11.0701
48.34	6.84891
48.56	1.47931
48.78	3.495
49	9.57529
49.22	23.1419
49.44	9.19659
49.66	29.2339
49.88	15.5157
50.1	0.15155
50.32	13.402
50.54	17.9258
50.76	7.22513
50.98	10.8473
51.2	16.6287
51.42	14.4224
51.64	16.3613
51.86	58.4112
52.08	19.0265
52.3	19.4071
52.52	1.092
52.74	4.45323
52.96	13.7081
53.18	13.2748
53.4	17.5173
53.62	18.2896
53.84	22.1
54.06	31.7978
54.28	13.1745
54.5	22.3846
54.72	17.7051
54.94	8.37815
55.16	6.48922
55.38	14.4915
55.6	34.6042
55.82	27.3901
56.04	27.3369
56.26	16.5478
56.48	12.7383
56.7	7.4123
56.92	1.61506
57.14	7.36249
57.36	32.8262
57.58	22.2392
57.8	21.6525
58.02	12.8175
58.24	11.4206
58.46	15.3196
58.68	15.4927
58.9	6.11198
59.12	24.8682
59.34	17.8486
59.56	6.13239
59.78	8.93587
60	12.7151
60.22	16.2715
60.44	15.1698
60.66	5.12304
60.88	32.1272
61.1	12.9848
61.32	28.337
61.54	9.28832
61.76	18.3276
61.98	32.1322
62.2	25.7296
62.42	15.2077
62.64	23.1555
62.86	16.4484
63.08	16.327
63.3	8.66854
63.52	19.8362
63.74	8.16129
63.96	6.1824
64.18	2.1517
64.4	22.2692
64.62	23.8656
64.84	0.830658
65.06	6.96706
65.28	5.94482
65.5	35.1059
65.72	7.3023
65.94	3.44225
66.16	8.39166
66.38	18.7185
66.6	5.88233
66.82	4.93749
67.04	1.64963
67.26	36.1248
67.48	2.19096
67.7	0.614861
67.92	13.913
68.14	25.5613
68.36	17.6805
68.58	6.56074
68.8	4.65762
69.02	0.070999
69.24	1.09373
69.46	4.26802
69.68	0.019951
69.9	11.0566
70.12	25.9615
70.34	4.36327
70.56	20.0493
70.78	32.9152
71	27.0191
71.22	15.14
71.44	13.958
71.66	14.9578
71.88	13.9912
72.1	22.6914
72.32	12.1745
72.54	15.9523
72.76	21.9084
72.98	8.35068
73.2	5.63938
73.42	12.8574
73.64	15.723
73.86	20.9128
74.08	29.3524
74.3	8.4323
74.52	17.864
74.74	4.98164
74.96	21.3114
75.18	15.2403
75.4	6.08337
75.62	13.5493
75.84	17.9575
76.06	13.947
76.28	12.9137
76.5	10.9434
76.72	0.946503
76.94	17.1811
77.16	11.489
77.38	11.8427
77.6	2.57098
77.82	16.8442
78.04	8.57237
78.26	11.6198
78.48	20.277
78.7	20.4254
78.92	21.2598
79.14	30.3193
79.36	19.4796
79.58	22.5013
79.8	13.8393
80.02	4.22855
80.24	10.5747
80.46	30.9422
80.68	22.3451
80.9	2.17299
81.12	4.53989
81.34	25.3205
81.56	7.16688
81.78	15.8867
82	7.45261
82.22	13.5931
82.44	22.1981
82.66	19.6745
82.88	20.9797
83.1	10.9744
83.32	22.8825
83.54	11.583
83.76	7.78719
83.98	18.4351
84.2	6.23498
84.42	29.4968
84.64	23.5357
84.86	2.71434
85.08	0.833302
85.3	33.2427
85.52	20.3161
85.74	16.4915
85.96	21.4709
86.18	20.8457
86.4	28.435
86.62	24.3733
86.84	25.3622
87.06	32.2658
87.28	25.9092
87.5	19.7316
87.72	24.9413
87.94	29.4266
88.16	14.7134
88.38	17.5542
88.6	21.2326
88.82	15.4542
89.04	24.7723
89.26	30.3532
89.48	11.7312
89.7	6.02165
89.92	21.8279
