Measurement: Powder, Xray Data XY Processed
Mineral: Inyoite
Rruff sample: R040161
Ideal chemistry: CaB_3_O_3_(OH)_5_4H_2_O
Locality: Kramer deposit, Boron, Kern County, California, USA
Source: University of Arizona Mineral Museum
Description: Group of colorless indistinct rounded crystals
Diffraction sample description: Powder
Measured chemistry: Ca_1.00_B_3.00_O_3_(OH)_5_Â·4H_2_O
Cell parameters: a: 10.6078(7) b: 12.0663(6) c: 8.4041(3) alpha: 90. beta: 113.996(4) gamma: 90. volume: 982.74(6) crystal system: monoclinic
x	intensity
5	0
5.22	9.53303
5.44	12.3577
5.66	11.372
5.88	19.5539
6.1	7.60059
6.32	16.764
6.54	2.16128
6.76	5.5434
6.98	2.02155
7.2	1.67899
7.42	5.36997
7.64	5.17719
7.86	0.019449
8.08	7.15102
8.3	6.24651
8.52	10.9039
8.74	1.76781
8.96	11.1605
9.18	12.5833
9.4	6.74578
9.62	10.9467
9.84	14.19
10.06	7.75781
10.28	3.08812
10.5	6.51929
10.72	1.80685
10.94	8.47827
11.16	10.8242
11.38	57.6575
11.6	472.669
11.82	63.893
12.04	8.61297
12.26	5.554
12.48	1.21485
12.7	3.35948
12.92	3.76463
13.14	2.2061
13.36	5.62707
13.58	24.9675
13.8	6.29858
14.02	3.75081
14.24	3.84951
14.46	13.1437
14.68	92.4639
14.9	12.053
15.12	2.14164
15.34	7.74806
15.56	2.20533
15.78	2.42956
16	6.70902
16.22	7.72381
16.44	1.73822
16.66	10.9495
16.88	11.0026
17.1	9.87972
17.32	87.4983
17.54	8.26878
17.76	10.6829
17.98	5.1692
18.2	0.298369
18.42	12.0792
18.64	102.884
18.86	44.8549
19.08	10.5582
19.3	4.22721
19.52	1.30382
19.74	82.5121
19.96	7.82031
20.18	9.25673
20.4	8.46235
20.62	0.668675
20.84	1.43405
21.06	3.80462
21.28	1.54916
21.5	9.06512
21.72	5.59185
21.94	2.9808
22.16	2.12495
22.38	19.638
22.6	12.6733
22.82	31.0555
23.04	35.2145
23.26	58.4804
23.48	6.04473
23.7	10.9256
23.92	75.8286
24.14	18.8747
24.36	4.16409
24.58	2.70419
24.8	12.4401
25.02	41.9598
25.24	2.01188
25.46	12.0142
25.68	13.8987
25.9	101.383
26.12	24.6019
26.34	10.3986
26.56	88.9128
26.78	7.37997
27	3.95522
27.22	4.63695
27.44	7.71204
27.66	10.3911
27.88	4.17727
28.1	5.20456
28.32	47.9912
28.54	46.6704
28.76	16.1053
28.98	14.6576
29.2	37.9219
29.42	32.8089
29.64	94.2075
29.86	6.67834
30.08	9.05776
30.3	4.66396
30.52	2.19519
30.74	6.89749
30.96	11.9551
31.18	6.66679
31.4	6.29382
31.62	3.57309
31.84	18.6822
32.06	75.5893
32.28	94.1172
32.5	12.353
32.72	0.345094
32.94	1.00719
33.16	19.9479
33.38	11.8693
33.6	8.19534
33.82	75.2589
34.04	33.613
34.26	10.9165
34.48	19.9098
34.7	2.16321
34.92	6.09237
35.14	16.3438
35.36	24.2976
35.58	173.842
35.8	29.6553
36.02	25.8382
36.24	12.0045
36.46	12.4785
36.68	13.8677
36.9	7.13136
37.12	8.34455
37.34	32.6735
37.56	15.3246
37.78	6.83253
38	28.5918
38.22	1.98722
38.44	28.8879
38.66	5.13411
38.88	5.22036
39.1	67.1033
39.32	7.35048
39.54	45.927
39.76	8.70403
39.98	9.88286
40.2	16.5467
40.42	0.559668
40.64	3.3081
40.86	17.1349
41.08	26.2052
41.3	63.6957
41.52	17.0459
41.74	18.0573
41.96	33.0748
42.18	6.46341
42.4	6.68388
42.62	0.571437
42.84	6.3219
43.06	5.03369
43.28	13.7101
43.5	24.0742
43.72	43.6373
43.94	24.6519
44.16	92.5072
44.38	41.8587
44.6	9.10372
44.82	7.28739
45.04	22.9209
45.26	2.32343
45.48	0.490088
45.7	34.3938
45.92	30.4412
46.14	22.8513
46.36	15.1559
46.58	22.7542
46.8	30.9316
47.02	10.3436
47.24	0.801535
47.46	0.740194
47.68	2.71481
47.9	1.05446
48.12	17.3322
48.34	39.9293
48.56	14.3258
48.78	7.63902
49	4.57021
49.22	10.6131
49.44	14.2556
49.66	3.34632
49.88	17.898
50.1	7.61078
50.32	22.151
50.54	3.82315
50.76	0.069621
50.98	5.15775
51.2	9.30961
51.42	10.6741
51.64	6.72397
51.86	0.499838
52.08	4.72449
52.3	41.451
52.52	3.13374
52.74	0.018624
52.96	2.76568
53.18	15.7661
53.4	2.78177
53.62	4.02189
53.84	29.1919
54.06	7.56887
54.28	4.69142
54.5	14.85
54.72	5.98733
54.94	5.97826
55.16	4.3473
55.38	6.48383
55.6	8.27944
55.82	4.19823
56.04	9.27567
56.26	4.01017
56.48	4.77947
56.7	7.82287
56.92	5.21573
57.14	4.24058
57.36	10.261
57.58	4.00276
57.8	11.8606
58.02	8.01977
58.24	11.5954
58.46	27.4892
58.68	15.0308
58.9	11.274
59.12	17.4509
59.34	2.28884
59.56	5.93735
59.78	2.08023
60	4.12195
60.22	11.1613
60.44	4.14503
60.66	8.75286
60.88	0.416587
61.1	10.1836
61.32	3.0437
61.54	8.29324
61.76	4.00966
61.98	1.0681
62.2	2.12501
62.42	3.60185
62.64	7.87495
62.86	4.95043
63.08	3.20363
63.3	8.69234
63.52	5.88181
63.74	4.9229
63.96	4.56709
64.18	4.3251
64.4	3.48155
64.62	1.29542
64.84	3.96123
65.06	11.915
65.28	3.79775
65.5	3.55036
65.72	5.10544
65.94	5.94616
66.16	2.92488
66.38	8.10955
66.6	0.629555
66.82	14.3711
67.04	4.40886
67.26	1.57199
67.48	4.61048
67.7	13.9556
67.92	3.14178
68.14	6.46459
68.36	5.68179
68.58	7.83636
68.8	4.72666
69.02	3.6912
69.24	8.97724
69.46	3.16671
69.68	10.1012
69.9	5.12499
70.12	3.27225
70.34	8.35536
70.56	10.2253
70.78	2.06004
71	5.18628
71.22	5.18385
71.44	0.354663
71.66	1.5413
71.88	5.35676
72.1	11.373
72.32	7.32497
72.54	7.14797
72.76	3.32475
72.98	3.39517
73.2	10.5681
73.42	4.79689
73.64	7.2112
73.86	2.57134
74.08	4.92389
74.3	2.08561
74.52	8.30412
74.74	10.2984
74.96	4.34226
75.18	4.18372
75.4	0.264669
75.62	8.25948
75.84	6.92442
76.06	5.03947
76.28	7.16835
76.5	0.857997
76.72	3.85878
76.94	4.73787
77.16	2.77099
77.38	4.90037
77.6	3.20174
77.82	4.33393
78.04	1.2216
78.26	8.42957
78.48	2.1474
78.7	4.95318
78.92	8.96533
79.14	3.90773
79.36	4.86121
79.58	5.81268
79.8	8.73636
80.02	0.483667
80.24	7.67092
80.46	7.82943
80.68	10.7974
80.9	1.12044
81.12	2.25719
81.34	3.58866
81.56	2.72688
81.78	7.91933
82	3.90668
82.22	3.99104
82.44	3.84725
82.66	4.85226
82.88	0.702947
83.1	1.85743
83.32	7.54563
83.54	8.84704
83.76	0.751134
83.98	7.72125
84.2	1.76048
84.42	10.7483
84.64	5.65697
84.86	6.73312
85.08	5.7325
85.3	1.76423
85.52	10.7432
85.74	13.6246
85.96	5.49326
86.18	9.81418
86.4	1.94939
86.62	2.99839
86.84	6.0709
87.06	3.37919
87.28	7.35601
87.5	1.4509
87.72	4.67611
87.94	4.66726
88.16	2.7997
88.38	13.6773
88.6	2.76722
88.82	5.97248
89.04	7.12947
89.26	3.19879
89.48	17.4066
89.7	8.09925
89.92	1.31275
