Measurement: Powder, Xray Data XY Processed
Mineral: Ishikawaite
Rruff sample: R070496
Ideal chemistry: (U^4+^,Fe^2+^,Y^3+^)Nb^5+^O_4_
Locality: Standpipe Hill mines, Topsham, Sagadahoc County, Maine, USA
Source: Michael Scott
Description: Dark brown prismatic crystal
Diffraction sample description: Powder
x	intensity
5	0
5.22	14.8426
5.44	25.5999
5.66	8.20974
5.88	5.52755
6.1	10.1172
6.32	27.5762
6.54	11.2263
6.76	4.78312
6.98	7.32016
7.2	18.045
7.42	14.94
7.64	18.9675
7.86	20.7607
8.08	14.5013
8.3	8.62494
8.52	9.20528
8.74	43.9585
8.96	23.3239
9.18	7.82428
9.4	20.8483
9.62	12.9131
9.84	7.61384
10.06	9.06431
10.28	9.41726
10.5	10.743
10.72	14.9591
10.94	11.7766
11.16	9.80471
11.38	19.9166
11.6	15.9826
11.82	9.62333
12.04	9.8548
12.26	6.09708
12.48	1.37738
12.7	18.5529
12.92	1.82284
13.14	3.50761
13.36	7.57936
13.58	0.494564
13.8	16.2036
14.02	23.973
14.24	0.285057
14.46	15.1666
14.68	11.3263
14.9	6.03868
15.12	6.01472
15.34	0.050617
15.56	21.0444
15.78	8.83941
16	2.70991
16.22	12.092
16.44	3.87648
16.66	8.89948
16.88	16.3773
17.1	11.1284
17.32	28.9437
17.54	11.6073
17.76	18.8131
17.98	0.277714
18.2	12.8228
18.42	31.757
18.64	6.57952
18.86	9.58938
19.08	6.40198
19.3	13.7676
19.52	10.5324
19.74	13.4397
19.96	15.2782
20.18	9.4532
20.4	4.50249
20.62	10.2912
20.84	18.2477
21.06	17.7123
21.28	8.42421
21.5	12.1422
21.72	5.09573
21.94	5.8016
22.16	18.2909
22.38	9.91931
22.6	10.5511
22.82	24.5247
23.04	13.7189
23.26	7.60387
23.48	5.29834
23.7	11.6206
23.92	14.5053
24.14	14.0947
24.36	6.06028
24.58	11.9716
24.8	3.90102
25.02	5.39783
25.24	19.2096
25.46	0.185398
25.68	1.68697
25.9	5.82254
26.12	2.63577
26.34	10.7064
26.56	37.3802
26.78	44.0997
27	16.9374
27.22	16.1836
27.44	12.8189
27.66	19.4542
27.88	20.6012
28.1	12.4462
28.32	14.1479
28.54	12.8027
28.76	4.7187
28.98	6.48988
29.2	35.988
29.42	10.0478
29.64	20.8334
29.86	11.1829
30.08	22.2061
30.3	13.4234
30.52	21.0377
30.74	11.4164
30.96	2.4489
31.18	1.56799
31.4	9.30712
31.62	1.31233
31.84	1.51854
32.06	12.7838
32.28	22.2971
32.5	19.3398
32.72	9.62374
32.94	13.6357
33.16	15.4059
33.38	14.1319
33.6	11.0648
33.82	5.00712
34.04	15.4389
34.26	4.84782
34.48	18.1938
34.7	12.1446
34.92	23.1082
35.14	15.0471
35.36	16.4102
35.58	4.76576
35.8	1.03523
36.02	3.36721
36.24	3.93258
36.46	12.1002
36.68	7.11203
36.9	16.4486
37.12	10.6685
37.34	1.29723
37.56	16.8296
37.78	7.67905
38	10.3914
38.22	7.10797
38.44	14.6407
38.66	9.66721
38.88	11.0814
39.1	9.44307
39.32	23.5327
39.54	24.0245
39.76	12.9595
39.98	2.25178
40.2	8.6977
40.42	19.624
40.64	19.3337
40.86	7.06106
41.08	11.7924
41.3	6.26853
41.52	13.661
41.74	25.4172
41.96	15.166
42.18	24.022
42.4	11.3024
42.62	1.88852
42.84	11.6696
43.06	2.6104
43.28	8.24646
43.5	14.0023
43.72	17.127
43.94	0.330967
44.16	5.55234
44.38	14.2293
44.6	4.7115
44.82	14.6758
45.04	15.2201
45.26	9.92358
45.48	16.135
45.7	10.2419
45.92	13.6976
46.14	11.1581
46.36	16.4403
46.58	2.26252
46.8	19.6257
47.02	3.58884
47.24	16.5887
47.46	9.49152
47.68	13.1038
47.9	20.0603
48.12	19.746
48.34	4.4142
48.56	15.1056
48.78	19.7485
49	9.69047
49.22	12.3113
49.44	10.2639
49.66	20.2128
49.88	11.4311
50.1	20.1083
50.32	13.903
50.54	11.8994
50.76	12.2455
50.98	6.17873
51.2	4.92712
51.42	22.6141
51.64	25.7549
51.86	6.51007
52.08	10.0917
52.3	6.0116
52.52	1.0248
52.74	9.85975
52.96	9.85764
53.18	5.74854
53.4	12.6062
53.62	24.2708
53.84	24.0268
54.06	20.2491
54.28	6.5014
54.5	12.3456
54.72	9.0354
54.94	5.71265
55.16	5.56275
55.38	10.9143
55.6	18.977
55.82	8.12657
56.04	21.1203
56.26	3.32759
56.48	8.59129
56.7	5.56305
56.92	16.1805
57.14	2.11925
57.36	10.6609
57.58	19.4983
57.8	12.5284
58.02	11.5253
58.24	10.7307
58.46	8.76827
58.68	10.0132
58.9	14.2314
59.12	13.401
59.34	7.31971
59.56	0.561966
59.78	18.5931
60	10.6736
60.22	4.67894
60.44	19.8573
60.66	20.7191
60.88	8.71522
61.1	12.7919
61.32	22.8792
61.54	13.9545
61.76	15.4374
61.98	16.6353
62.2	1.32982
62.42	4.63292
62.64	10.9913
62.86	14.5384
63.08	10.3385
63.3	9.66677
63.52	7.85659
63.74	8.25057
63.96	6.78687
64.18	11.0215
64.4	9.36843
64.62	5.5877
64.84	12.5541
65.06	8.49837
65.28	26.3119
65.5	14.3417
65.72	9.20021
65.94	8.31405
66.16	19.9157
66.38	9.72116
66.6	10.7101
66.82	7.34258
67.04	12.1322
67.26	11.4829
67.48	12.9658
67.7	11.2946
67.92	10.1702
68.14	0.461504
68.36	9.72854
68.58	24.2048
68.8	6.31245
69.02	9.17524
69.24	15.0274
69.46	8.01223
69.68	11.9518
69.9	5.49077
70.12	6.24254
70.34	13.525
70.56	12.5205
70.78	0.477232
71	6.24632
71.22	3.68655
71.44	3.50909
71.66	7.61002
71.88	12.6706
72.1	5.86574
72.32	14.0454
72.54	13.939
72.76	8.39968
72.98	4.43824
73.2	11.9924
73.42	9.36707
73.64	4.56005
73.86	20.8688
74.08	30.7931
74.3	4.73774
74.52	3.76239
74.74	16.8068
74.96	10.5331
75.18	14.4769
75.4	10.5898
75.62	8.1885
75.84	2.15809
76.06	10.6037
76.28	4.8883
76.5	9.81133
76.72	8.60102
76.94	2.75296
77.16	15.809
77.38	7.80039
77.6	12.6053
77.82	13.4407
78.04	8.54009
78.26	10.2912
78.48	13.6992
78.7	13.6173
78.92	16.8119
79.14	11.1321
79.36	3.15245
79.58	9.0786
79.8	13.3699
80.02	8.69346
80.24	16.584
80.46	0.299223
80.68	8.70039
80.9	2.44345
81.12	13.9797
81.34	9.78662
81.56	11.4561
81.78	17.4528
82	3.50414
82.22	9.21423
82.44	10.8972
82.66	15.6792
82.88	10.4976
83.1	10.1824
83.32	9.93499
83.54	19.0246
83.76	9.25787
83.98	6.37922
84.2	13.2512
84.42	19.4831
84.64	7.60266
84.86	13.7629
85.08	11.7734
85.3	3.11702
85.52	17.8744
85.74	7.75001
85.96	8.64136
86.18	15.6852
86.4	5.20427
86.62	5.84452
86.84	6.15129
87.06	2.27505
87.28	11.874
87.5	10.1028
87.72	4.7122
87.94	6.48634
88.16	10.9552
88.38	25.8886
88.6	20.0413
88.82	18.3402
89.04	10.3478
89.26	23.009
89.48	7.52337
89.7	16.4639
89.92	14.727
