Measurement: Powder, Xray Data XY Processed
Mineral: Jadeite
Rruff sample: R050220
Ideal chemistry: NaAlSi_2_O_6_
Locality: Clear Creek, San Benito County, California, USA
Source: Hatt Yoder
Description: Aggregate of colorless bladed crystals
Diffraction sample description: Powder
Measured chemistry: Na_1.00_Al_1.00_(Si_0.99_Al_0.01_)_2_O_6_
Cell parameters: a: 9.4257(3) b: 8.5684(1) c: 5.2255(2) alpha: 90. beta: 107.565(2) gamma: 90. volume: 402.35(1) crystal system: monoclinic
x	intensity
5	0
5.22	0.598425
5.44	12.4264
5.66	9.80831
5.88	4.99159
6.1	8.43865
6.32	12.9345
6.54	3.53936
6.76	6.41831
6.98	2.52548
7.2	5.35766
7.42	10.3135
7.64	3.04935
7.86	8.78253
8.08	4.53021
8.3	1.37296
8.52	6.94227
8.74	0.292049
8.96	14.7811
9.18	7.07202
9.4	9.86635
9.62	7.60036
9.84	9.98009
10.06	10.2877
10.28	16.5739
10.5	14.8016
10.72	3.84681
10.94	2.92783
11.16	0.238261
11.38	5.41769
11.6	8.21923
11.82	4.11941
12.04	11.41
12.26	3.95397
12.48	6.88082
12.7	10.9162
12.92	10.7067
13.14	2.37647
13.36	1.00398
13.58	5.98033
13.8	2.89894
14.02	8.88232
14.24	46.2534
14.46	10.4679
14.68	6.62268
14.9	6.61959
15.12	7.67722
15.34	3.03067
15.56	2.52494
15.78	21.7624
16	15.3634
16.22	8.54167
16.44	12.9286
16.66	2.18751
16.88	10.3335
17.1	0.460911
17.32	7.51025
17.54	7.52433
17.76	6.50257
17.98	7.25793
18.2	8.34395
18.42	11.8657
18.64	7.7055
18.86	9.91029
19.08	0.606697
19.3	7.14436
19.52	1.04666
19.74	18.9899
19.96	1.08413
20.18	6.06022
20.4	45.1459
20.62	24.4177
20.84	76.438
21.06	3.59192
21.28	4.37309
21.5	5.45727
21.72	0.32419
21.94	6.90379
22.16	3.0641
22.38	5.10593
22.6	2.79449
22.82	8.65394
23.04	2.27542
23.26	5.3475
23.48	5.32292
23.7	1.15
23.92	7.19391
24.14	1.14708
24.36	4.90972
24.58	7.71572
24.8	8.83568
25.02	0.795929
25.24	6.84625
25.46	6.90814
25.68	13.7837
25.9	18.6957
26.12	16.775
26.34	0.438545
26.56	9.48554
26.78	5.65738
27	8.06903
27.22	7.91049
27.44	53.8952
27.66	17.6669
27.88	7.51163
28.1	6.47138
28.32	5.73274
28.54	20.847
28.76	103.5
28.98	12.1272
29.2	0.258395
29.42	2.35193
29.64	6.70572
29.86	7.99293
30.08	2.59254
30.3	3.97881
30.52	72.2284
30.74	246.329
30.96	7.66756
31.18	5.80019
31.4	7.03393
31.62	669.265
31.84	42.9169
32.06	3.53203
32.28	1.95079
32.5	0.622698
32.72	6.30542
32.94	1.47013
33.16	10.1705
33.38	9.88305
33.6	1.43469
33.82	9.91651
34.04	3.88263
34.26	2.04085
34.48	4.98693
34.7	5.96536
34.92	6.78496
35.14	10.5902
35.36	3.97652
35.58	12.435
35.8	10.8031
36.02	74.4146
36.24	74.0617
36.46	4.0657
36.68	0.113494
36.9	2.33494
37.12	24.8017
37.34	67.3659
37.56	7.85156
37.78	6.10631
38	4.83616
38.22	5.13306
38.44	5.47516
38.66	3.60326
38.88	2.72962
39.1	2.26355
39.32	3.17436
39.54	10.8581
39.76	6.32367
39.98	4.98461
40.2	4.60483
40.42	5.43053
40.64	4.21611
40.86	18.9048
41.08	46.7606
41.3	5.72598
41.52	1.06735
41.74	19.9787
41.96	60.89
42.18	5.947
42.4	6.91782
42.62	5.84219
42.84	5.71012
43.06	4.66947
43.28	7.62242
43.5	14.5893
43.72	63.222
43.94	65.3632
44.16	11.5728
44.38	57.4996
44.6	7.29902
44.82	3.17892
45.04	0.920275
45.26	0.105001
45.48	19.7232
45.7	13.5765
45.92	5.3807
46.14	113.18
46.36	10.3202
46.58	5.73705
46.8	8.02566
47.02	5.19315
47.24	9.41044
47.46	6.92327
47.68	2.57613
47.9	10.8606
48.12	11.3677
48.34	42.6169
48.56	2.86524
48.78	5.94014
49	2.62555
49.22	5.99489
49.44	3.02739
49.66	16.9316
49.88	4.86737
50.1	2.59287
50.32	0.651291
50.54	9.62046
50.76	1.70486
50.98	10.6397
51.2	10.4851
51.42	1.91695
51.64	7.00419
51.86	17.0622
52.08	41.2346
52.3	12.3996
52.52	10.9701
52.74	4.93195
52.96	4.06489
53.18	0.09199
53.4	9.25677
53.62	3.28283
53.84	5.38184
54.06	0.038007
54.28	15.9871
54.5	109.849
54.72	10.6136
54.94	5.32972
55.16	5.21295
55.38	0.13076
55.6	13.8948
55.82	8.69111
56.04	1.60459
56.26	0.711287
56.48	3.73937
56.7	20.6337
56.92	17.6235
57.14	21.9463
57.36	17.6811
57.58	1.53449
57.8	1.29097
58.02	2.32324
58.24	1.59157
58.46	8.43426
58.68	57.4025
58.9	104.939
59.12	5.07198
59.34	10.6648
59.56	40.3217
59.78	88.4394
60	7.52972
60.22	4.85886
60.44	9.22985
60.66	8.05579
60.88	18.7897
61.1	6.50834
61.32	2.23773
61.54	4.21344
61.76	10.2834
61.98	26.7967
62.2	10.6314
62.42	61.598
62.64	19.1831
62.86	22.012
63.08	20.9262
63.3	3.54291
63.52	17.3117
63.74	9.76389
63.96	9.21511
64.18	6.65606
64.4	6.01123
64.62	4.20674
64.84	11.2618
65.06	9.48622
65.28	45.4834
65.5	54.4603
65.72	8.31271
65.94	9.47433
66.16	4.62377
66.38	2.8141
66.6	2.83474
66.82	6.92473
67.04	0.199587
67.26	5.51942
67.48	2.09904
67.7	1.6746
67.92	0.831056
68.14	7.36284
68.36	25.7189
68.58	12.305
68.8	10.9431
69.02	136.138
69.24	46.2312
69.46	13.9304
69.68	13.465
69.9	4.92854
70.12	9.57194
70.34	2.13662
70.56	5.92386
70.78	6.46179
71	6.77565
71.22	3.89266
71.44	0.77315
71.66	4.4485
71.88	8.94392
72.1	1.64811
72.32	6.82366
72.54	10.5526
72.76	114.316
72.98	64.8707
73.2	3.77119
73.42	3.70729
73.64	1.27728
73.86	15.8038
74.08	4.93917
74.3	7.11442
74.52	1.51764
74.74	36.8826
74.96	22.2788
75.18	4.47504
75.4	3.60613
75.62	0.509266
75.84	3.5802
76.06	5.61072
76.28	9.63845
76.5	8.71573
76.72	9.75562
76.94	23.5771
77.16	6.14515
77.38	9.94565
77.6	0.176945
77.82	1.88701
78.04	1.76448
78.26	5.60451
78.48	6.47598
78.7	12.3108
78.92	10.1126
79.14	16.8199
79.36	0.8912
79.58	6.65575
79.8	35.8023
80.02	14.9806
80.24	10.0226
80.46	2.26196
80.68	7.49795
80.9	11.3023
81.12	4.62157
81.34	10.0025
81.56	5.31467
81.78	4.33389
82	0.282475
82.22	9.76963
82.44	0.927687
82.66	5.17973
82.88	7.2653
83.1	3.34632
83.32	1.99491
83.54	0.0599
83.76	5.81385
83.98	4.74998
84.2	5.68236
84.42	5.63519
84.64	0.520484
84.86	10.2342
85.08	7.08906
85.3	5.11843
85.52	5.07131
85.74	6.90817
85.96	12.975
86.18	4.25133
86.4	6.43863
86.62	10.5631
86.84	14.9615
87.06	2.2068
87.28	1.39615
87.5	2.77905
87.72	5.97711
87.94	11.1678
88.16	7.44417
88.38	4.55093
88.6	9.42868
88.82	6.39138
89.04	4.39872
89.26	8.45937
89.48	8.27753
89.7	1.14997
89.92	2.99572
