Measurement: Powder, Xray Data XY Processed
Mineral: Jamesonite
Rruff sample: R050481
Ideal chemistry: Pb^2+^_4_Fe^2+^Sb^3+^_6_S^2-^_14_
Locality: Itos mine, Oruro City, Bolivia
Source: California Institute of Technology
Description: A group of gray-black thickly acicular crystals
Diffraction sample description: Powder
Measured chemistry: Pb_4.00_Fe_1.00_(Sb_5.97_As_0.03_)_Î£=6_S_14.00_
Cell parameters: a: 15.705(2) b: 19.102(2) c: 4.0271(4) alpha: 90. beta: 91.79(1) gamma: 90. volume: 1207.6(2) crystal system: monoclinic
x	intensity
5	0
5.22	0.035
5.44	4.159
5.66	5.504
5.88	2.925
6.1	3.952
6.32	4.808
6.54	2.695
6.76	7.051
6.98	0.611
7.2	2.315
7.42	5.494
7.64	0.437
7.86	1.372
8.08	0.746
8.3	3.407
8.52	1.431
8.74	4.694
8.96	2.705
9.18	2.527
9.4	4.42
9.62	0.322
9.84	4.021
10.06	0.318
10.28	3.14
10.5	1.327
10.72	5.313
10.94	3.546
11.16	0.397
11.38	4.904
11.6	8.5
11.82	3.784
12.04	4.115
12.26	4.328
12.48	4.317
12.7	3.39
12.92	3.512
13.14	2.481
13.36	4.415
13.58	3.034
13.8	4.85
14.02	0.271
14.24	0.182
14.46	5.124
14.68	12.974
14.9	6.95
15.12	2.036
15.34	7.908
15.56	7.896
15.78	1.888
16	7.184
16.22	1.327
16.44	4.303
16.66	0.242
16.88	8.209
17.1	4.141
17.32	3.109
17.54	6.873
17.76	3
17.98	1.787
18.2	0.717
18.42	0.636
18.64	3.276
18.86	2.331
19.08	2.512
19.3	8.408
19.52	3.66
19.74	0.261
19.96	2.75
20.18	2.676
20.4	0.495
20.62	6.139
20.84	4.782
21.06	5.268
21.28	0.904
21.5	1.688
21.72	17.248
21.94	5.374
22.16	9.452
22.38	1.067
22.6	4.567
22.82	8.235
23.04	9.706
23.26	15.86
23.48	3.88
23.7	3.783
23.92	2.444
24.14	15.932
24.36	6.934
24.58	0.383
24.8	16.24
25.02	3.188
25.24	19.159
25.46	7.421
25.68	18.971
25.9	65.187
26.12	14.236
26.34	4.881
26.56	0.543
26.78	6.485
27	8.043
27.22	14.452
27.44	3.733
27.66	0.807
27.88	1.537
28.1	4.454
28.32	36.299
28.54	9.151
28.76	10.132
28.98	29.893
29.2	2.655
29.42	5.839
29.64	2.079
29.86	0.962
30.08	7.101
30.3	7.916
30.52	0.58
30.74	1.413
30.96	9.83
31.18	3.53
31.4	5.294
31.62	31.046
31.84	14.329
32.06	1.207
32.28	1.98
32.5	0.214
32.72	33.637
32.94	38.161
33.16	9.816
33.38	7.931
33.6	3.569
33.82	0.278
34.04	5.194
34.26	8.828
34.48	0.583
34.7	8.614
34.92	0.479
35.14	2.339
35.36	3.609
35.58	5.255
35.8	3.961
36.02	5.682
36.24	3.899
36.46	5.82
36.68	0.853
36.9	4.921
37.12	5.786
37.34	5.411
37.56	7.703
37.78	4.854
38	12.126
38.22	6.939
38.44	0.223
38.66	2.619
38.88	0.909
39.1	4.201
39.32	18.859
39.54	7.8
39.76	4.443
39.98	1.312
40.2	16.079
40.42	7.052
40.64	7.054
40.86	1.085
41.08	3.514
41.3	8.864
41.52	3.17
41.74	4.166
41.96	6.324
42.18	4.113
42.4	1.007
42.62	7.926
42.84	1.687
43.06	7.395
43.28	2.735
43.5	1.214
43.72	8.11
43.94	26.516
44.16	28.132
44.38	7.45
44.6	24.235
44.82	18.115
45.04	10.341
45.26	10.407
45.48	2.502
45.7	1.493
45.92	0.204
46.14	0.749
46.36	3.961
46.58	6.918
46.8	5.914
47.02	2.571
47.24	8.278
47.46	6.624
47.68	6.816
47.9	9.14
48.12	4.539
48.34	3.978
48.56	6.206
48.78	13.212
49	2.328
49.22	0.487
49.44	5.866
49.66	15.685
49.88	11.418
50.1	6.123
50.32	3.023
50.54	0.274
50.76	4.234
50.98	0.35
51.2	1.311
51.42	3.384
51.64	5.401
51.86	22.311
52.08	0.975
52.3	10.598
52.52	1.532
52.74	5.27
52.96	2.064
53.18	7.475
53.4	11.609
53.62	5.133
53.84	1.63
54.06	10.044
54.28	9.982
54.5	5.283
54.72	6.639
54.94	7.355
55.16	0.42
55.38	0.689
55.6	7.043
55.82	9.534
56.04	0.149
56.26	0.527
56.48	5.378
56.7	0.452
56.92	2.548
57.14	3.694
57.36	16.738
57.58	7.734
57.8	5.721
58.02	8.481
58.24	5.327
58.46	2.194
58.68	3.085
58.9	6.225
59.12	11.037
59.34	7.146
59.56	5.011
59.78	4.64
60	0.734
60.22	5.53
60.44	3.732
60.66	14.468
60.88	3.52
61.1	5.645
61.32	3.091
61.54	11.321
61.76	2.422
61.98	0.193
62.2	2.103
62.42	7.028
62.64	1.015
62.86	0.753
63.08	6.517
63.3	8.383
63.52	5.431
63.74	6.051
63.96	11.821
64.18	8.911
64.4	5.201
64.62	3.585
64.84	5.551
65.06	1.734
65.28	0.924
65.5	11.225
65.72	2.672
65.94	9.512
66.16	9.771
66.38	6.735
66.6	7.675
66.82	7.462
67.04	4.144
67.26	3.994
67.48	10.885
67.7	2.726
67.92	6.789
68.14	2.396
68.36	11.379
68.58	4.159
68.8	4.91
69.02	3.073
69.24	1.319
69.46	11.274
69.68	1.54
69.9	1.716
70.12	3.858
70.34	2.774
70.56	2.789
70.78	3.071
71	0.947
71.22	6.074
71.44	1.49
71.66	3.378
71.88	2.475
72.1	7.42
72.32	3.363
72.54	2.469
72.76	9.4
72.98	4.126
73.2	0.806
73.42	1.801
73.64	6.737
73.86	12.227
74.08	2.158
74.3	1.177
74.52	0.049
74.74	0.866
74.96	5.81
75.18	0.742
75.4	0.813
75.62	5.949
75.84	2.788
76.06	3.879
76.28	6.844
76.5	7.041
76.72	2.789
76.94	8.169
77.16	1.582
77.38	3.711
77.6	9.917
77.82	0.085
78.04	3.042
78.26	0.687
78.48	3.292
78.7	7.364
78.92	6.426
79.14	7.689
79.36	7.367
79.58	5.077
79.8	4.304
80.02	4.447
80.24	8.617
80.46	7.707
80.68	9.443
80.9	6.522
81.12	8.519
81.34	9.342
81.56	8.017
81.78	0.091
82	7.866
82.22	1.845
82.44	10.597
82.66	4.682
82.88	0.394
83.1	4.171
83.32	2.44
83.54	5.576
83.76	4.584
83.98	5.825
84.2	4.985
84.42	1.954
84.64	7.308
84.86	0.211
85.08	7.114
85.3	2.163
85.52	4.842
85.74	4.505
85.96	0.197
86.18	11.139
86.4	2.93
86.62	4.901
86.84	4.942
87.06	5.812
87.28	12.835
87.5	0.877
87.72	4.154
87.94	0.384
88.16	3.586
88.38	11.813
88.6	8.098
88.82	3.385
89.04	7.55
89.26	5.891
89.48	3.469
89.7	3.96
89.92	3.107
