Measurement: Powder, Xray Data XY Processed
Mineral: Jamesonite
Rruff sample: R050430
Ideal chemistry: Pb^2+^_4_Fe^2+^Sb^3+^_6_S^2-^_14_
Locality: Zacatecas, Mexico
Source: University of Arizona Mineral Museum
Description: Grayish black coarsely acicular crystals
Diffraction sample description: Powder
Measured chemistry: Pb_4.02_Fe_1.00_Sb_5.98_S_14.00_
Cell parameters: a: 15.651(5) b: 18.968(4) c: 4.0147(7) alpha: 90 beta: 91.80(5) gamma: 90 volume: 1191.3(3) crystal system: monoclinic
x	intensity
5	0
5.22	13.286
5.44	5.217
5.66	2.8
5.88	10.378
6.1	10.933
6.32	2.353
6.54	5.67
6.76	3.109
6.98	2.534
7.2	2.253
7.42	5.565
7.64	7.53
7.86	1.786
8.08	7.049
8.3	1.989
8.52	9.103
8.74	4.165
8.96	5.22
9.18	6.572
9.4	8.53
9.62	3.137
9.84	2.132
10.06	10.245
10.28	8.091
10.5	5.301
10.72	9.298
10.94	12.34
11.16	5.4
11.38	7.502
11.6	0.689
11.82	6.533
12.04	7.691
12.26	0.037
12.48	3.995
12.7	1.266
12.92	4.162
13.14	5.195
13.36	2.169
13.58	5.051
13.8	1.991
14.02	6.883
14.24	4.872
14.46	8.832
14.68	9.685
14.9	10.605
15.12	12.507
15.34	1.527
15.56	3.641
15.78	5.781
16	2.728
16.22	10.623
16.44	2.445
16.66	7.371
16.88	7.288
17.1	2.298
17.32	4.17
17.54	4.05
17.76	5.829
17.98	8.778
18.2	2.986
18.42	6.055
18.64	1.164
18.86	2.407
19.08	1.606
19.3	3.712
19.52	14.232
19.74	4.338
19.96	2.278
20.18	7.906
20.4	11.401
20.62	1.293
20.84	3.11
21.06	6.409
21.28	6.036
21.5	1.279
21.72	13.697
21.94	17.788
22.16	4.772
22.38	0.991
22.6	5.909
22.82	7.427
23.04	16.873
23.26	17.539
23.48	12.162
23.7	5.171
23.92	12.853
24.14	16.565
24.36	16.148
24.58	4.876
24.8	11.617
25.02	8.845
25.24	7.685
25.46	12.767
25.68	13.757
25.9	15.568
26.12	12.191
26.34	16.749
26.56	2.918
26.78	7.422
27	10.894
27.22	1.288
27.44	5.602
27.66	7.777
27.88	11.798
28.1	8.772
28.32	10.477
28.54	0.157
28.76	5.25
28.98	4.882
29.2	8.918
29.42	2.831
29.64	3.821
29.86	1.733
30.08	12.44
30.3	17.088
30.52	4.663
30.74	1.238
30.96	8.199
31.18	10.847
31.4	8.127
31.62	14.689
31.84	23.243
32.06	14.773
32.28	4.158
32.5	0.419
32.72	14.284
32.94	16.087
33.16	3.948
33.38	8.016
33.6	2.767
33.82	10.916
34.04	9.031
34.26	8.305
34.48	4.228
34.7	0.614
34.92	4.142
35.14	7.196
35.36	6.592
35.58	8.723
35.8	8.697
36.02	10.739
36.24	0.718
36.46	3.914
36.68	2.484
36.9	7.518
37.12	8.473
37.34	0.434
37.56	20.134
37.78	10.956
38	3.715
38.22	6.5
38.44	3.226
38.66	2.84
38.88	5.106
39.1	4.834
39.32	7.53
39.54	1.312
39.76	4.597
39.98	6.782
40.2	13.174
40.42	8.403
40.64	7.195
40.86	4.348
41.08	4.516
41.3	2.255
41.52	13.031
41.74	16.149
41.96	12.654
42.18	11.543
42.4	9.837
42.62	7.387
42.84	5.98
43.06	10.966
43.28	13.606
43.5	7.262
43.72	12.808
43.94	5.114
44.16	15.149
44.38	11.212
44.6	11.93
44.82	10.565
45.04	14.38
45.26	1.472
45.48	8.81
45.7	4.026
45.92	3.213
46.14	0.317
46.36	0.173
46.58	5.139
46.8	10.125
47.02	8.465
47.24	6.362
47.46	6.356
47.68	6.416
47.9	12.341
48.12	6.135
48.34	6.286
48.56	0.229
48.78	6.169
49	4.091
49.22	5.942
49.44	4.839
49.66	8.832
49.88	15.078
50.1	8.762
50.32	8.338
50.54	5.432
50.76	7.461
50.98	9.594
51.2	11.733
51.42	2.947
51.64	3.396
51.86	6.332
52.08	15.51
52.3	10.474
52.52	12.755
52.74	11.654
52.96	3.86
53.18	3.386
53.4	9.701
53.62	4.986
53.84	7.336
54.06	2.328
54.28	4.699
54.5	7.015
54.72	13.337
54.94	3.507
55.16	6.253
55.38	1.683
55.6	5.392
55.82	2.394
56.04	1.371
56.26	3.503
56.48	6.479
56.7	8.379
56.92	7.372
57.14	9.585
57.36	13.748
57.58	2.93
57.8	4.143
58.02	10.338
58.24	8.531
58.46	9.433
58.68	13.016
58.9	15.13
59.12	8.229
59.34	15.138
59.56	2.982
59.78	1.8
60	8.711
60.22	5.498
60.44	9.372
60.66	7.216
60.88	14.251
61.1	4.805
61.32	7.674
61.54	2.713
61.76	4.581
61.98	8.484
62.2	5.305
62.42	3.112
62.64	5.055
62.86	2.012
63.08	2.361
63.3	5.196
63.52	0.368
63.74	6.539
63.96	12.489
64.18	6.621
64.4	3.713
64.62	1.771
64.84	11.072
65.06	6.293
65.28	0.578
65.5	3.328
65.72	2.568
65.94	2.431
66.16	3.163
66.38	9.121
66.6	3.296
66.82	4.445
67.04	5.526
67.26	7.189
67.48	20.89
67.7	11.683
67.92	6.64
68.14	3.518
68.36	5.425
68.58	10.602
68.8	11.894
69.02	3.605
69.24	4.528
69.46	16.492
69.68	8.674
69.9	5.981
70.12	4.029
70.34	3.108
70.56	10.099
70.78	0.999
71	2.994
71.22	3.916
71.44	5.042
71.66	3.356
71.88	11.284
72.1	4.218
72.32	8.965
72.54	14.037
72.76	2.95
72.98	3.822
73.2	10.984
73.42	11.075
73.64	16.849
73.86	4.783
74.08	7.48
74.3	0.476
74.52	4.521
74.74	7.714
74.96	0.374
75.18	9.609
75.4	11.551
75.62	11.688
75.84	0.593
76.06	7.636
76.28	6.707
76.5	7.961
76.72	7.116
76.94	12.02
77.16	5.045
77.38	3.053
77.6	0.926
77.82	3.042
78.04	6.927
78.26	2.979
78.48	0.843
78.7	3.878
78.92	7.602
79.14	7.657
79.36	5.095
79.58	0.739
79.8	10.509
80.02	2.712
80.24	8.923
80.46	10.967
80.68	5.553
80.9	0.632
81.12	0.352
81.34	3.699
81.56	12.505
81.78	4.099
82	7.944
82.22	3.836
82.44	4.787
82.66	7.561
82.88	7.854
83.1	5.316
83.32	6.327
83.54	0.534
83.76	9.614
83.98	10.845
84.2	10.812
84.42	5.125
84.64	1.196
84.86	16.244
85.08	8.254
85.3	10.897
85.52	3.884
85.74	1.217
85.96	8.883
86.18	9.723
86.4	1.505
86.62	9.502
86.84	3.628
87.06	6.667
87.28	8.656
87.5	0.85
87.72	4.137
87.94	8.431
88.16	8.695
88.38	9.655
88.6	0.228
88.82	12.2
89.04	6.435
89.26	6.649
89.48	7.809
89.7	5.014
89.92	0.035
