Measurement: Powder, Xray Data XY Processed
Mineral: Jarosite
Rruff sample: R060113
Ideal chemistry: KFe^3+^_3_(S^6+^O_4_)_2_(OH)_6_
Locality: Iron Blossom mine, East Tintic District, Eureka, Utah, USA
Source: University of Arizona Mineral Museum
Description: Amber-yellow to dark brown rhombohedral crystals
Diffraction sample description: Powder
Measured chemistry: (K_0.88_Sr_0.12_)(Fe^3+^_0.96_Al_0.04_)_3_((S_0.94_P_0.06_)O_4_)_2_(OH)_6_
Cell parameters: a: 7.3013(5) b: 7.3013(5) c: 17.211(1) alpha: 90 beta: 90 gamma: 120 volume: 794.6(1) crystal system: hexagonal
x	intensity
5	0
5.22	30.502
5.44	9.788
5.66	16.425
5.88	1.635
6.1	1.444
6.32	18.939
6.54	22.008
6.76	10.97
6.98	22.982
7.2	3.04
7.42	12.17
7.64	16.299
7.86	10.168
8.08	26.743
8.3	32.183
8.52	2.442
8.74	18.491
8.96	4.965
9.18	3.477
9.4	6.639
9.62	28.676
9.84	10.845
10.06	25.332
10.28	1.051
10.5	15.684
10.72	27.818
10.94	8.271
11.16	23.827
11.38	3.87
11.6	14.865
11.82	14.687
12.04	18.205
12.26	24.118
12.48	8.149
12.7	21.659
12.92	1.634
13.14	12.035
13.36	22.182
13.58	25.387
13.8	1.122
14.02	18.312
14.24	7.023
14.46	1.017
14.68	17.664
14.9	30.866
15.12	2.275
15.34	15.398
15.56	24.289
15.78	13.065
16	23.99
16.22	3.716
16.44	11.641
16.66	7.647
16.88	0.846
17.1	14.709
17.32	18.792
17.54	33.83
17.76	4.29
17.98	4.378
18.2	19.549
18.42	13.695
18.64	24.972
18.86	7.842
19.08	15.116
19.3	20.055
19.52	13.277
19.74	7.189
19.96	15.944
20.18	8.278
20.4	31.845
20.62	10.652
20.84	8.666
21.06	14.42
21.28	19.224
21.5	25.385
21.72	19.494
21.94	3.147
22.16	3.199
22.38	15.944
22.6	7.624
22.82	8.463
23.04	13.953
23.26	2.783
23.48	9.857
23.7	16.647
23.92	16.34
24.14	0.306
24.36	17.881
24.58	23.51
24.8	28.746
25.02	35.777
25.24	21.953
25.46	39.65
25.68	7.135
25.9	9.985
26.12	19.191
26.34	25.897
26.56	9.178
26.78	14.644
27	4.103
27.22	14.386
27.44	15.53
27.66	24.608
27.88	19.889
28.1	23.66
28.32	4.672
28.54	8.996
28.76	99.151
28.98	151.801
29.2	44.497
29.42	8.052
29.64	10.52
29.86	28.12
30.08	15.787
30.3	17.506
30.52	8.16
30.74	5.499
30.96	7.478
31.18	98.497
31.4	37.733
31.62	31.002
31.84	17.904
32.06	25.231
32.28	19.181
32.5	9.806
32.72	9.881
32.94	18.204
33.16	11.675
33.38	1.602
33.6	14.669
33.82	3.304
34.04	2.669
34.26	8.701
34.48	14.437
34.7	14.246
34.92	4.252
35.14	1.516
35.36	38.494
35.58	20.741
35.8	1.214
36.02	17.774
36.24	14.943
36.46	18.469
36.68	0.898
36.9	1.176
37.12	13.189
37.34	21.771
37.56	22.385
37.78	2.334
38	45.184
38.22	15.883
38.44	11.08
38.66	28.015
38.88	14.042
39.1	24.148
39.32	89.475
39.54	37.056
39.76	19.022
39.98	11.518
40.2	18.002
40.42	7.346
40.64	21.3
40.86	11.284
41.08	18.689
41.3	1.277
41.52	11.929
41.74	11.999
41.96	1.889
42.18	11.668
42.4	8.857
42.62	15.008
42.84	14.63
43.06	13.675
43.28	5.352
43.5	18.46
43.72	12.473
43.94	20.15
44.16	21.765
44.38	20.854
44.6	0.075
44.82	14.102
45.04	12.044
45.26	2.436
45.48	6.975
45.7	19.96
45.92	64.564
46.14	14.69
46.36	15.581
46.58	19.486
46.8	31.271
47.02	5.115
47.24	15.027
47.46	17.106
47.68	30.816
47.9	13.37
48.12	13.511
48.34	26.081
48.56	8.753
48.78	22.968
49	15.459
49.22	11.278
49.44	2.007
49.66	25.652
49.88	28.383
50.1	21.775
50.32	3.739
50.54	22.423
50.76	11.813
50.98	5.561
51.2	1.324
51.42	19.581
51.64	5.812
51.86	14.012
52.08	2.365
52.3	3.023
52.52	23.917
52.74	3.3
52.96	0.729
53.18	12.043
53.4	27.789
53.62	27.565
53.84	15.615
54.06	20.981
54.28	23.091
54.5	15.281
54.72	13.707
54.94	30.577
55.16	4.33
55.38	10.8
55.6	14.184
55.82	3.748
56.04	19.824
56.26	14.338
56.48	20.75
56.7	31.787
56.92	20.633
57.14	10.224
57.36	32.098
57.58	4.996
57.8	13.754
58.02	11.752
58.24	12.118
58.46	6.134
58.68	20.93
58.9	5.57
59.12	26.186
59.34	2.318
59.56	19.24
59.78	24.294
60	21.886
60.22	19.576
60.44	32.406
60.66	9.556
60.88	7.125
61.1	14.874
61.32	38.597
61.54	35.448
61.76	25.619
61.98	4.911
62.2	21.03
62.42	0.092
62.64	10.818
62.86	2.941
63.08	6.804
63.3	10.047
63.52	10.855
63.74	22.393
63.96	4.486
64.18	22.485
64.4	10.325
64.62	4.331
64.84	2.356
65.06	1.817
65.28	8.987
65.5	4.365
65.72	17.815
65.94	7.857
66.16	16.732
66.38	8.165
66.6	12.286
66.82	13.028
67.04	1.794
67.26	13.04
67.48	37.075
67.7	4.975
67.92	3.683
68.14	19.583
68.36	10.906
68.58	15.223
68.8	27.109
69.02	5.495
69.24	32.672
69.46	24.149
69.68	23.683
69.9	1.666
70.12	35.39
70.34	38.99
70.56	17.029
70.78	17.698
71	4.045
71.22	21.591
71.44	0.467
71.66	1.578
71.88	18.806
72.1	13.164
72.32	22.411
72.54	2.196
72.76	12.603
72.98	0.091
73.2	15.031
73.42	16.404
73.64	3.063
73.86	8.276
74.08	15.056
74.3	14.303
74.52	6.945
74.74	5.891
74.96	25.328
75.18	20.004
75.4	16.633
75.62	16.703
75.84	14.224
76.06	27.496
76.28	22.188
76.5	9.592
76.72	4.296
76.94	10.02
77.16	3.349
77.38	16.523
77.6	27.04
77.82	0.358
78.04	31.078
78.26	2.015
78.48	17.168
78.7	12.22
78.92	12.342
79.14	7.22
79.36	11.111
79.58	25.684
79.8	14.077
80.02	10.895
80.24	20.861
80.46	28.137
80.68	2.304
80.9	2.289
81.12	30.19
81.34	34.855
81.56	30.38
81.78	22.468
82	18.336
82.22	15.307
82.44	13.094
82.66	28.422
82.88	1.326
83.1	24.148
83.32	30.132
83.54	10.3
83.76	20.176
83.98	4.382
84.2	41.501
84.42	2.217
84.64	16.567
84.86	17.735
85.08	21.776
85.3	1.33
85.52	11.344
85.74	15.161
85.96	16.875
86.18	16.776
86.4	24.381
86.62	16.344
86.84	23.805
87.06	8.734
87.28	12.96
87.5	1.294
87.72	9.75
87.94	16.278
88.16	27.728
88.38	17
88.6	21.387
88.82	1.248
89.04	24.066
89.26	1.76
89.48	31.254
89.7	27.126
89.92	0.793
