Measurement: Powder, Xray Data XY Processed
Mineral: Jinshajiangite
Rruff sample: R061018
Ideal chemistry: BaNaFe^2+^_4_Ti^4+^_2_(Si_2_O_7_)_2_O_2_(OH)_2_F
Locality: Jinshajiang River, western Sichuan Province, China
Source: Pingqiu Fu
Description: Brownish red cleavage fragments, portion of the type sample
Diffraction sample description: Single crystal, powder profile is calculated
Measured chemistry: Na_0.71_(Ba_0.58_K_0.39_Ce_0.14_)_Σ=1.11_(Fe_1.93_Mn_1.91_Mg_0.03_)_Σ=3.87_(Ti_1.77_Si_0.15_Zr_0.09_Al_0.004_)_Σ=2.01_(Si_2_O_7_)_2_O_2_(OH)_2_F_0.52_
Cell parameters: a: 10.7046(4) b: 13.8118(4) c: 20.7579(8) alpha: 90 beta: 95.009(2) gamma: 90 volume: 3057.3(2) crystal system: monoclinic
x	intensity
5	0
5.22	0
5.44	0
5.66	0
5.88	0
6.1	0
6.32	0
6.54	0
6.76	0
6.98	0
7.2	0
7.42	0
7.64	0
7.86	0
8.08	0
8.3	0
8.52	26.444
8.74	0
8.96	0
9.18	0
9.4	0
9.62	0
9.84	0
10.06	0
10.28	0
10.5	6.118
10.72	0
10.94	0.093
11.16	0.001
11.38	0
11.6	3.111
11.82	0
12.04	0
12.26	0
12.48	0
12.7	0.02
12.92	0.019
13.14	0.068
13.36	0
13.58	0.424
13.8	0
14.02	0.565
14.24	0
14.46	0
14.68	0
14.9	0
15.12	0
15.34	0.333
15.56	0
15.78	0
16	0.665
16.22	0
16.44	0
16.66	0.009
16.88	0.083
17.1	18.941
17.32	0
17.54	6.448
17.76	0
17.98	0.823
18.2	11.229
18.42	0
18.64	0
18.86	0
19.08	0
19.3	0.069
19.52	0.589
19.74	0
19.96	0
20.18	6.122
20.4	0
20.62	0.009
20.84	0.009
21.06	1.171
21.28	0.745
21.5	0.424
21.72	0.479
21.94	10.761
22.16	7.581
22.38	0.198
22.6	0
22.82	1.364
23.04	0.181
23.26	15.026
23.48	0
23.7	0
23.92	0.482
24.14	0
24.36	0.285
24.58	0.287
24.8	0
25.02	20.788
25.24	0
25.46	0.257
25.68	0.323
25.9	7.745
26.12	3.237
26.34	29.399
26.56	2.059
26.78	0.784
27	0
27.22	12.359
27.44	0
27.66	1.015
27.88	0.075
28.1	37.81
28.32	1.049
28.54	0.019
28.76	0.004
28.98	0.21
29.2	0.053
29.42	0
29.64	0.974
29.86	0.153
30.08	0.002
30.3	0.061
30.52	0
30.74	0.727
30.96	5.54
31.18	11.178
31.4	41.179
31.62	0.886
31.84	0.073
32.06	0.588
32.28	26.473
32.5	0.085
32.72	0.061
32.94	10.109
33.16	0
33.38	0.151
33.6	2.454
33.82	3.325
34.04	60.929
34.26	0.044
34.48	0.169
34.7	24.167
34.92	0.036
35.14	0.697
35.36	2.693
35.58	0.172
35.8	0.161
36.02	0.822
36.24	0.54
36.46	14.51
36.68	0.618
36.9	8.655
37.12	0.386
37.34	1.131
37.56	0.113
37.78	0.463
38	0.001
38.22	0.159
38.44	0.099
38.66	17.668
38.88	0.196
39.1	0.338
39.32	0.372
39.54	2.015
39.76	0.174
39.98	0.435
40.2	0.228
40.42	0.079
40.64	1.97
40.86	23.51
41.08	0.006
41.3	9.466
41.52	0.37
41.74	1.644
41.96	0.378
42.18	1.113
42.4	0.055
42.62	4.457
42.84	6.074
43.06	10.204
43.28	1.286
43.5	0.128
43.72	4.62
43.94	1.51
44.16	0.821
44.38	2.978
44.6	8.203
44.82	3.185
45.04	0.587
45.26	1.723
45.48	0.42
45.7	3.518
45.92	0.782
46.14	0.425
46.36	0.06
46.58	0.12
46.8	0.193
47.02	2.915
47.24	0.001
47.46	0.366
47.68	0.663
47.9	0.315
48.12	0.312
48.34	0.552
48.56	0.476
48.78	0.196
49	0.362
49.22	0.003
49.44	0.6
49.66	1.226
49.88	4.12
50.1	0.318
50.32	0.674
50.54	0.408
50.76	0.032
50.98	0.12
51.2	1.054
51.42	4.247
51.64	0.665
51.86	16.425
52.08	0.178
52.3	1.848
52.52	0.633
52.74	0.075
52.96	20.411
53.18	2.713
53.4	0.481
53.62	3.019
53.84	0.915
54.06	1.488
54.28	1.244
54.5	0.554
54.72	1.726
54.94	2.441
55.16	1.272
55.38	0.233
55.6	0.137
55.82	0.038
56.04	4.651
56.26	0.691
56.48	0.464
56.7	0.276
56.92	3.355
57.14	9.659
57.36	0.465
57.58	0.161
57.8	2.141
58.02	16.148
58.24	10.677
58.46	0.782
58.68	7.627
58.9	2.833
59.12	1.74
59.34	1.118
59.56	0.203
59.78	3.282
60	2.792
60.22	0.058
60.44	0.419
60.66	0.054
60.88	1.813
61.1	1.811
61.32	1.064
61.54	0.778
61.76	0.312
61.98	0.238
62.2	1.201
62.42	0.134
62.64	0.232
62.86	0.148
63.08	0.052
63.3	0.094
63.52	0.523
63.74	0.264
63.96	0.327
64.18	0.376
64.4	4.933
64.62	2.101
64.84	4.613
65.06	0.782
65.28	4.235
65.5	3.954
65.72	0.14
65.94	1.443
66.16	2.034
66.38	0.694
66.6	0.55
66.82	0.338
67.04	2.973
67.26	1.695
67.48	0.482
67.7	1.016
67.92	0.721
68.14	0.374
68.36	0.147
68.58	1.817
68.8	0.821
69.02	1.099
69.24	0.503
69.46	3.816
69.68	0.995
69.9	0.455
70.12	0.271
70.34	0.675
70.56	0.906
70.78	0.2
71	0.435
71.22	0.314
71.44	0.467
71.66	2.455
71.88	1.482
72.1	0.512
72.32	0.167
72.54	0.872
72.76	0.536
72.98	2.1
73.2	1.543
73.42	1.774
73.64	0.673
73.86	0.444
74.08	0.311
74.3	0.695
74.52	0.405
74.74	0.5
74.96	0.611
75.18	0.54
75.4	0.396
75.62	0.826
75.84	1.476
76.06	0.639
76.28	0.193
76.5	0.148
76.72	0.837
76.94	1.374
77.16	0.632
77.38	1.13
77.6	0.743
77.82	0.292
78.04	0.31
78.26	0.967
78.48	0.674
78.7	1.978
78.92	1.481
79.14	0.164
79.36	0.082
79.58	0.927
79.8	0.411
80.02	0.256
80.24	0.245
80.46	0.461
80.68	0.939
80.9	0.298
81.12	1.017
81.34	0.581
81.56	0.051
81.78	0.103
82	0.166
82.22	0.362
82.44	0.68
82.66	0.318
82.88	0.356
83.1	0.158
83.32	0.331
83.54	0.167
83.76	0.138
83.98	0.144
84.2	0.222
84.42	2.744
84.64	1.941
84.86	0.508
85.08	0.135
85.3	0.144
85.52	0.319
85.74	0.257
85.96	0.341
86.18	0.199
86.4	0.527
86.62	0.957
86.84	0.85
87.06	0.378
87.28	0.113
87.5	0.279
87.72	0.253
87.94	0.058
88.16	0.148
88.38	1.835
88.6	0.444
88.82	0.971
89.04	0.202
89.26	0.128
89.48	0.142
89.7	1.614
89.92	0.263
