Measurement: Powder, Xray Data XY Processed
Mineral: Johachidolite
Rruff sample: R070640
Ideal chemistry: CaAlB_3_O_7_
Locality: Pyant Gyi mine, Mogok Stone Tract, Mandalay Division, Burma
Source: Marcus Origlieri
Description: Pale yellowish orange granular
Diffraction sample description: Powder
Measured chemistry: Ca_1.00_Al_1.00_B_3.00_O_7_; B estimated by difference
Cell parameters: a: 7.9652(1) b: 11.7275(3) c: 4.37149(8) alpha: 90 beta: 90 gamma: 90 volume: 408.35(1) crystal system: orthorhombic
x	intensity
5	0
5.22	0.367621
5.44	15.2055
5.66	7.27238
5.88	15.8438
6.1	15.5146
6.32	3.85709
6.54	5.11032
6.76	5.21229
6.98	15.0334
7.2	4.69925
7.42	12.1275
7.64	9.18196
7.86	2.50872
8.08	2.53163
8.3	10.7872
8.52	7.08386
8.74	9.15563
8.96	0.366628
9.18	5.57892
9.4	8.88378
9.62	3.07281
9.84	6.0471
10.06	1.44487
10.28	9.41941
10.5	4.51938
10.72	6.75492
10.94	5.31562
11.16	5.79299
11.38	4.14486
11.6	8.66623
11.82	0.197106
12.04	5.21732
12.26	6.76524
12.48	4.08413
12.7	10.2447
12.92	2.28123
13.14	4.23414
13.36	1.39791
13.58	9.26338
13.8	4.63269
14.02	9.54169
14.24	3.322
14.46	8.36586
14.68	3.30288
14.9	4.58079
15.12	37.6849
15.34	8.80495
15.56	1.96138
15.78	5.02191
16	3.01602
16.22	10.0101
16.44	4.11278
16.66	6.10963
16.88	4.47002
17.1	3.38525
17.32	1.05559
17.54	6.03715
17.76	2.16762
17.98	1.37216
18.2	6.33015
18.42	0.212693
18.64	0.572207
18.86	1.2102
19.08	3.04209
19.3	1.64308
19.52	3.74453
19.74	0.020032
19.96	5.80722
20.18	10.7792
20.4	24.566
20.62	8.54418
20.84	2.42552
21.06	4.06451
21.28	2.1687
21.5	3.05278
21.72	1.08684
21.94	1.15893
22.16	3.87074
22.38	109.05
22.6	1.64457
22.82	2.74908
23.04	6.82504
23.26	3.95789
23.48	1.049
23.7	7.40366
23.92	3.61533
24.14	2.71375
24.36	3.35905
24.58	4.12775
24.8	0.487928
25.02	3.58796
25.24	4.37834
25.46	59.0029
25.68	21.1252
25.9	2.95876
26.12	0.499624
26.34	7.7785
26.56	1.06475
26.78	9.22998
27	7.22354
27.22	1.25006
27.44	10.1566
27.66	2.50839
27.88	0.681798
28.1	8.12864
28.32	4.3351
28.54	3.57514
28.76	2.22691
28.98	0.142692
29.2	2.868
29.42	2.67289
29.64	2.08623
29.86	0.004058
30.08	0.817864
30.3	16.6889
30.52	21.4615
30.74	13.2674
30.96	2.38687
31.18	9.778
31.4	0.91763
31.62	0.881605
31.84	5.49205
32.06	7.6152
32.28	9.49517
32.5	2.57851
32.72	3.27186
32.94	0.51213
33.16	10.1072
33.38	1.88826
33.6	1.503
33.82	8.45897
34.04	273.03
34.26	35.6664
34.48	0.128162
34.7	3.29313
34.92	1.6856
35.14	16.9869
35.36	10.2634
35.58	4.52138
35.8	1.45052
36.02	11.2828
36.24	8.48331
36.46	11.0025
36.68	10.1224
36.9	108.68
37.12	7.29576
37.34	8.92756
37.56	5.27732
37.78	11.5798
38	4.75155
38.22	74.0182
38.44	4.17164
38.66	10.3932
38.88	11.1911
39.1	2.23093
39.32	2.43004
39.54	0.448457
39.76	8.28848
39.98	1.83587
40.2	7.0484
40.42	23.9202
40.64	18.234
40.86	3.08157
41.08	12.0871
41.3	6.08573
41.52	9.42248
41.74	1.45626
41.96	2.57092
42.18	0.414907
42.4	4.20902
42.62	0.607128
42.84	7.93446
43.06	3.571
43.28	14.673
43.5	17.6358
43.72	37.8289
43.94	5.34237
44.16	0.859533
44.38	5.40887
44.6	0.959585
44.82	2.16165
45.04	5.86094
45.26	10.1459
45.48	49.0249
45.7	34.6381
45.92	10.913
46.14	29.013
46.36	156.204
46.58	9.81404
46.8	1.22642
47.02	0.577868
47.24	4.59865
47.46	43.0678
47.68	5.90009
47.9	1.29176
48.12	1.19116
48.34	33.0962
48.56	10.0975
48.78	0.735147
49	8.8896
49.22	1.74234
49.44	8.62996
49.66	8.59544
49.88	5.6983
50.1	200.539
50.32	101.593
50.54	23.7829
50.76	1.48699
50.98	9.11563
51.2	1.18877
51.42	1.30829
51.64	0.445841
51.86	2.7726
52.08	39.4753
52.3	39.6252
52.52	8.75129
52.74	7.7768
52.96	4.86569
53.18	4.02521
53.4	11.1974
53.62	2.50035
53.84	3.70577
54.06	3.34169
54.28	1.50315
54.5	0.839381
54.72	4.65598
54.94	0.44315
55.16	4.35736
55.38	15.0072
55.6	6.76777
55.82	34.7998
56.04	4.69637
56.26	4.57902
56.48	44.9821
56.7	10.7267
56.92	0.153048
57.14	2.45846
57.36	3.66827
57.58	13.0743
57.8	6.4092
58.02	2.48266
58.24	0.425118
58.46	7.62226
58.68	10.6209
58.9	4.59466
59.12	0.310624
59.34	0.341779
59.56	1.19068
59.78	12.0231
60	90.9023
60.22	2.03494
60.44	3.45428
60.66	0.983027
60.88	0.239846
61.1	9.62874
61.32	13.9819
61.54	9.92564
61.76	0.830153
61.98	0.528762
62.2	1.12129
62.42	5.95182
62.64	9.35736
62.86	0.838442
63.08	25.368
63.3	72.2884
63.52	0.567075
63.74	2.5054
63.96	8.8164
64.18	1.05731
64.4	1.17607
64.62	2.51754
64.84	0.16419
65.06	2.12365
65.28	2.37372
65.5	3.36165
65.72	6.12042
65.94	5.67183
66.16	0.302491
66.38	7.31418
66.6	6.631
66.82	1.65471
67.04	0.689941
67.26	10.0635
67.48	7.68982
67.7	0.648653
67.92	3.77107
68.14	18.8444
68.36	21.2132
68.58	34.467
68.8	2.38451
69.02	11.1625
69.24	0.449974
69.46	6.72482
69.68	9.75194
69.9	4.74438
70.12	5.84501
70.34	0.990764
70.56	8.81697
70.78	3.30509
71	23.3657
71.22	4.06564
71.44	3.6877
71.66	13.9393
71.88	10.8935
72.1	6.96073
72.32	5.05024
72.54	5.13722
72.76	0.73398
72.98	2.2678
73.2	11.3763
73.42	1.38798
73.64	0.523071
73.86	0.411738
74.08	10.2557
74.3	13.4208
74.52	1.54161
74.74	12.7729
74.96	5.9495
75.18	9.00748
75.4	7.29372
75.62	3.36999
75.84	0.867762
76.06	0.171998
76.28	3.80789
76.5	0.908975
76.72	50.1361
76.94	31.8688
77.16	0.35838
77.38	3.06974
77.6	1.72134
77.82	0.801722
78.04	6.25954
78.26	5.45106
78.48	5.57088
78.7	9.84674
78.92	5.89107
79.14	11.0605
79.36	8.39886
79.58	3.5853
79.8	1.80763
80.02	7.00448
80.24	0.00235
80.46	2.41759
80.68	4.31799
80.9	4.211
81.12	6.42767
81.34	11.4511
81.56	11.8609
81.78	27.6371
82	0.670785
82.22	0.401124
82.44	0.778422
82.66	5.55214
82.88	12.767
83.1	5.93055
83.32	10.0007
83.54	8.64924
83.76	4.95433
83.98	4.01499
84.2	0.167554
84.42	7.27836
84.64	9.25055
84.86	0.891852
85.08	6.29952
85.3	4.44743
85.52	21.6084
85.74	11.5909
85.96	6.51285
86.18	4.14702
86.4	0.797012
86.62	6.16035
86.84	19.1106
87.06	7.17889
87.28	8.36243
87.5	14.3151
87.72	0.886649
87.94	4.14381
88.16	2.12244
88.38	1.12036
88.6	6.05862
88.82	0.245587
89.04	11.6082
89.26	6.23911
89.48	2.33953
89.7	12.061
89.92	0.036258
