Measurement: Powder, Xray Data XY Processed
Mineral: Julgoldite-(Fe2+)
Rruff sample: R070725
Ideal chemistry: Ca_2_Fe^2+^Fe^3+^_2_(Si_2_O_7_)(SiO_4_)(OH)_2_H_2_O
Locality: Khandivali Quarry (Kandivali Quarry),  Mumbai District (Bombay District),  Maharashtra,  India
Source: Michael Scott
Description: Clusters of black blades associated with pale green bladed prehnite and quartz
Diffraction sample description: Powder, mixed with quartz
Measured chemistry: Ca_2.00_(Fe^2+^_0.86_Mg_0.14_)_Σ=1_(Fe^3+^_1.67_Al_0.33_)_Σ=2_(Si_2.00_O_7_)(Si_1.00_O_4_)(OH)_2_·H_2_O; OH by charge balance = light; Ca_2.00_(Fe^2+^_0.82_Mg_0.18_)_Σ=1_(Fe^3+^_1.44_Al_0.58_)_Σ=2_(Si_2.00_O_7_)(Si_1.00_O_4_)(OH)_2_·H_2_O = darker
Cell parameters: a: 8.912(1) b: 6.0661(6) c: 19.380(2) alpha: 90 beta: 97.586(9) gamma: 90 volume: 1038.50(9) crystal system: monoclinic
x	intensity
5	0
5.22	6.42701
5.44	30.2183
5.66	14.3157
5.88	25.731
6.1	19.7149
6.32	30.3118
6.54	44.8926
6.76	45.295
6.98	23.2716
7.2	13.13
7.42	34.9434
7.64	25.0474
7.86	2.23714
8.08	15.2203
8.3	12.6527
8.52	9.46675
8.74	25.9062
8.96	23.7916
9.18	33.1224
9.4	13.9772
9.62	20.9354
9.84	11.7879
10.06	20.411
10.28	24.0679
10.5	17.2875
10.72	24.3584
10.94	8.92468
11.16	23.4455
11.38	7.97825
11.6	27.698
11.82	17.7036
12.04	6.87682
12.26	14.8971
12.48	1.82063
12.7	36.7835
12.92	35.4779
13.14	3.89995
13.36	19.6748
13.58	19.4867
13.8	6.25068
14.02	28.4456
14.24	13.064
14.46	49.2919
14.68	20.9231
14.9	0.689651
15.12	16.8983
15.34	17.8401
15.56	7.79453
15.78	23.2717
16	27.3513
16.22	30.0064
16.44	18.2011
16.66	17.7473
16.88	16.5263
17.1	8.10783
17.32	14.069
17.54	20.1803
17.76	1.31385
17.98	5.10729
18.2	26.4351
18.42	33.6151
18.64	47.2712
18.86	16.3567
19.08	20.0786
19.3	8.43447
19.52	1.01361
19.74	18.0202
19.96	22.1323
20.18	32.6752
20.4	32.9332
20.62	12.3025
20.84	29.9702
21.06	5.96394
21.28	5.14877
21.5	24.1667
21.72	13.7439
21.94	6.35336
22.16	18.4034
22.38	20.2067
22.6	3.72684
22.82	29.3429
23.04	24.9657
23.26	113.828
23.48	30.641
23.7	18.2658
23.92	4.44806
24.14	13.6061
24.36	17.1599
24.58	8.11061
24.8	8.05901
25.02	0.869713
25.24	37.6095
25.46	37.9218
25.68	4.63915
25.9	14.9155
26.12	14.0896
26.34	2.31282
26.56	44.1928
26.78	15.663
27	2.72793
27.22	18.6018
27.44	25.454
27.66	21.7507
27.88	3.6854
28.1	33.2103
28.32	27.2132
28.54	15.4461
28.76	8.16193
28.98	13.6546
29.2	26.0695
29.42	10.2525
29.64	17.5933
29.86	23.1475
30.08	13.4485
30.3	40.273
30.52	34.9443
30.74	11.5194
30.96	28.384
31.18	41.6833
31.4	5.74726
31.62	18.8877
31.84	5.29106
32.06	20.4886
32.28	111.239
32.5	30.6195
32.72	3.4817
32.94	18.0497
33.16	6.76511
33.38	30.4131
33.6	50.4775
33.82	19.1311
34.04	15.6566
34.26	10.4627
34.48	14.7952
34.7	5.99235
34.92	88.6535
35.14	28.4195
35.36	16.0226
35.58	32.3085
35.8	15.6144
36.02	43.1452
36.24	39.169
36.46	2.18127
36.68	4.34876
36.9	22.2975
37.12	4.06599
37.34	11.4641
37.56	11.2387
37.78	64.8512
38	37.0397
38.22	5.92796
38.44	1.53516
38.66	15.3612
38.88	21.1596
39.1	20.3184
39.32	16.4824
39.54	19.0314
39.76	19.8385
39.98	19.1418
40.2	29.9768
40.42	36.5936
40.64	14.8824
40.86	37.7248
41.08	25.6207
41.3	8.52366
41.52	26.6125
41.74	18.6109
41.96	38.8314
42.18	15.8028
42.4	13.1549
42.62	10.4694
42.84	5.7804
43.06	35.1891
43.28	21.3885
43.5	32.0298
43.72	23.0461
43.94	1.40734
44.16	9.88664
44.38	21.4804
44.6	3.47255
44.82	1.47339
45.04	2.35461
45.26	28.8161
45.48	20.6931
45.7	15.433
45.92	21.8718
46.14	0.73243
46.36	17.1283
46.58	15.7776
46.8	25.2025
47.02	29.0779
47.24	18.755
47.46	20.3876
47.68	12.7908
47.9	31.224
48.12	2.29294
48.34	32.6221
48.56	22.5046
48.78	9.9493
49	6.26981
49.22	16.745
49.44	17.163
49.66	27.2168
49.88	2.12052
50.1	19.5776
50.32	11.7036
50.54	16.9997
50.76	6.39863
50.98	16.3025
51.2	32.7936
51.42	0.165817
51.64	21.439
51.86	28.2074
52.08	28.2749
52.3	24.2757
52.52	3.42723
52.74	34.2393
52.96	50.1743
53.18	15.3653
53.4	23.7555
53.62	9.46603
53.84	7.58041
54.06	22.8435
54.28	17.0628
54.5	29.6718
54.72	2.93549
54.94	24.5492
55.16	12.6358
55.38	19.5565
55.6	28.5182
55.82	13.9219
56.04	13.4734
56.26	27.6207
56.48	27.4322
56.7	30.3877
56.92	60.346
57.14	22.8376
57.36	28.6016
57.58	21.5406
57.8	8.87491
58.02	8.96302
58.24	33.4252
58.46	19.7022
58.68	18.2139
58.9	20.4627
59.12	17.1494
59.34	24.862
59.56	23.8274
59.78	1.5071
60	30.3605
60.22	32.3137
60.44	30.6277
60.66	16.4968
60.88	20.6687
61.1	10.5878
61.32	34.5008
61.54	17.2259
61.76	27.2313
61.98	14.6752
62.2	16.5944
62.42	5.22781
62.64	23.0217
62.86	24.6302
63.08	20.8333
63.3	19.1239
63.52	39.8324
63.74	2.94704
63.96	21.7383
64.18	14.0358
64.4	22.4473
64.62	22.1642
64.84	31.4937
65.06	3.56228
65.28	8.92263
65.5	25.9691
65.72	3.13062
65.94	12.4181
66.16	25.2102
66.38	21.9914
66.6	12.202
66.82	7.72051
67.04	7.5082
67.26	18.3356
67.48	13.6239
67.7	15.3177
67.92	20.4457
68.14	31.3965
68.36	36.9664
68.58	11.6758
68.8	11.087
69.02	25.6551
69.24	23.7585
69.46	3.8666
69.68	17.8345
69.9	31.6901
70.12	6.59586
70.34	20.293
70.56	21.0367
70.78	30.2201
71	27.5474
71.22	0.039734
71.44	19.8434
71.66	24.6473
71.88	0.655533
72.1	27.526
72.32	1.11397
72.54	10.5503
72.76	16.0003
72.98	28.5633
73.2	18.9977
73.42	9.18214
73.64	16.0999
73.86	42.4627
74.08	4.93753
74.3	27.1484
74.52	16.3684
74.74	22.7087
74.96	24.6462
75.18	15.4766
75.4	29.5404
75.62	11.0927
75.84	10.3518
76.06	15.301
76.28	12.0208
76.5	6.48483
76.72	11.9846
76.94	25.2002
77.16	12.6655
77.38	2.72553
77.6	17.9287
77.82	15.649
78.04	13.8004
78.26	16.3823
78.48	24.3485
78.7	17.0206
78.92	9.03595
79.14	6.78008
79.36	9.9312
79.58	21.7211
79.8	29.4549
80.02	16.3077
80.24	20.6664
80.46	8.95573
80.68	19.1805
80.9	20.5369
81.12	7.59878
81.34	13.0369
81.56	21.2825
81.78	14.837
82	29.6294
82.22	23.9571
82.44	12.848
82.66	5.84775
82.88	35.4148
83.1	11.5442
83.32	6.30345
83.54	2.28822
83.76	10.1477
83.98	11.9522
84.2	14.4269
84.42	4.10698
84.64	13.8929
84.86	15.0107
85.08	41.8611
85.3	14.7914
85.52	37.1464
85.74	9.61188
85.96	36.874
86.18	24.4243
86.4	32.5988
86.62	17.5734
86.84	17.296
87.06	15.2733
87.28	26.0729
87.5	26.7971
87.72	4.64325
87.94	0.124008
88.16	27.387
88.38	20.3531
88.6	26.3944
88.82	24.2939
89.04	21.6102
89.26	25.9881
89.48	15.2322
89.7	8.14372
89.92	0.294441
