Measurement: Powder, Xray Data XY Processed
Mineral: K3Fe(CN)5NO
Rruff sample: R060933
Ideal chemistry: K_3_Fe(CN)_5_NO
Locality: Synthetic, made in the Czech Republic
Source: Rock H. Currier Collection
Description: Large sharp single crystal, translucent red, incorrectly distributed as lopezite
Diffraction sample description: Powder
Measured chemistry: K_3.00_Fe^3+^_1.00_(CN)_5_NO ; N,C,O not measured but assumed by stoichiometry
Cell parameters: a: 13.447(4) b: 10.421(4) c: 8.395(2) alpha: 90 beta: 90 gamma: 90 volume: 1176.5(4) crystal system: orthorhombic
x	intensity
5	0
5.22	11.0161
5.44	18.7288
5.66	4.90816
5.88	4.39732
6.1	10.4537
6.32	7.72842
6.54	6.60295
6.76	13.5641
6.98	24.9912
7.2	11.5343
7.42	4.5122
7.64	13.9211
7.86	8.34403
8.08	5.90899
8.3	11.6755
8.52	4.00932
8.74	19.9686
8.96	3.42778
9.18	3.72487
9.4	8.30775
9.62	15.1699
9.84	1.99173
10.06	13.5072
10.28	9.76021
10.5	6.81885
10.72	8.47616
10.94	4.84441
11.16	10.3565
11.38	6.08716
11.6	5.47189
11.82	6.02212
12.04	2.49906
12.26	4.30832
12.48	11.7326
12.7	5.35694
12.92	9.26428
13.14	9.12242
13.36	10.7257
13.58	1.26547
13.8	5.18218
14.02	13.6829
14.24	8.77971
14.46	11.8152
14.68	7.49083
14.9	17.7465
15.12	9.33007
15.34	10.2846
15.56	11.2589
15.78	6.77104
16	10.6558
16.22	7.69195
16.44	8.90601
16.66	11.8248
16.88	3.78035
17.1	29.1799
17.32	11.9227
17.54	0.746212
17.76	10.9782
17.98	5.47118
18.2	16.2996
18.42	0.43331
18.64	9.67984
18.86	5.59001
19.08	12.2072
19.3	8.53006
19.52	16.8814
19.74	2.87509
19.96	13.7842
20.18	13.2388
20.4	0.126324
20.62	24.7063
20.84	12.3661
21.06	21.8372
21.28	11.6181
21.5	43.5651
21.72	107.241
21.94	26.8692
22.16	26.3027
22.38	8.56842
22.6	1.11159
22.82	16.1918
23.04	5.8438
23.26	8.24614
23.48	4.62764
23.7	15.2952
23.92	21.8252
24.14	16.8431
24.36	8.9561
24.58	7.67943
24.8	6.43881
25.02	27.1793
25.24	10.1397
25.46	8.63241
25.68	3.83727
25.9	13.9707
26.12	4.39478
26.34	9.62268
26.56	20.4922
26.78	6.28252
27	2.13697
27.22	8.3223
27.44	10.2689
27.66	0.089041
27.88	7.7051
28.1	14.0265
28.32	15.5627
28.54	2.78592
28.76	12.4846
28.98	21.474
29.2	65.2797
29.42	20.4147
29.64	2.32078
29.86	5.15648
30.08	8.35881
30.3	25.5855
30.52	66.9675
30.74	12.6751
30.96	6.06007
31.18	1.35846
31.4	13.795
31.62	0.81657
31.84	7.3403
32.06	5.26509
32.28	17.3035
32.5	8.61073
32.72	6.24196
32.94	10.7573
33.16	11.79
33.38	4.86156
33.6	6.58813
33.82	24.1508
34.04	40.1627
34.26	41.2267
34.48	15.3
34.7	9.6169
34.92	12.1715
35.14	3.47092
35.36	3.36571
35.58	3.6295
35.8	1.11071
36.02	6.09302
36.24	17.8989
36.46	4.94796
36.68	15.8077
36.9	5.85616
37.12	7.61618
37.34	4.7496
37.56	7.05032
37.78	16.4087
38	0.237076
38.22	11.6324
38.44	15.5252
38.66	13.6579
38.88	11.316
39.1	15.3362
39.32	25.4759
39.54	8.21513
39.76	14.0733
39.98	1.38349
40.2	0.514877
40.42	8.04584
40.64	12.0352
40.86	8.09826
41.08	1.79392
41.3	10.7738
41.52	16.4401
41.74	13.3101
41.96	9.02612
42.18	10.9305
42.4	8.73803
42.62	2.43182
42.84	11.1117
43.06	9.84569
43.28	18.3769
43.5	13.6674
43.72	19.9355
43.94	27.0902
44.16	25.9764
44.38	18.4071
44.6	4.34978
44.82	5.90469
45.04	12.4527
45.26	3.92077
45.48	17.4063
45.7	17.5788
45.92	9.92461
46.14	6.20674
46.36	19.3289
46.58	10.0091
46.8	4.77537
47.02	4.14482
47.24	5.81157
47.46	0.670555
47.68	5.53502
47.9	8.30761
48.12	7.11431
48.34	3.84969
48.56	9.0094
48.78	9.24634
49	10.9327
49.22	17.0848
49.44	21.9481
49.66	15.1206
49.88	16.0596
50.1	9.01553
50.32	16.0396
50.54	13.36
50.76	13.6687
50.98	5.40719
51.2	3.90734
51.42	9.46965
51.64	8.38863
51.86	9.58384
52.08	8.37068
52.3	3.24873
52.52	12.1194
52.74	7.98364
52.96	1.57611
53.18	20.4215
53.4	11.2149
53.62	5.81583
53.84	8.13351
54.06	2.93975
54.28	1.54585
54.5	3.63974
54.72	23.7044
54.94	12.0434
55.16	8.22117
55.38	6.59048
55.6	13.4732
55.82	12.1927
56.04	6.02303
56.26	10.6794
56.48	5.77024
56.7	24.8486
56.92	8.78499
57.14	5.71804
57.36	5.39998
57.58	6.44344
57.8	13.1128
58.02	21.4956
58.24	4.0339
58.46	3.66822
58.68	2.86142
58.9	9.72257
59.12	1.75568
59.34	10.8383
59.56	11.9348
59.78	1.81574
60	14.2537
60.22	15.1567
60.44	3.31101
60.66	3.34291
60.88	9.58309
61.1	6.69753
61.32	16.6634
61.54	7.89082
61.76	12.1779
61.98	17.0668
62.2	10.8586
62.42	0.425463
62.64	1.59494
62.86	14.307
63.08	8.06
63.3	14.8539
63.52	18.0373
63.74	8.29003
63.96	11.0914
64.18	10.6564
64.4	6.0848
64.62	11.0337
64.84	9.01756
65.06	4.79398
65.28	1.17865
65.5	17.289
65.72	12.2253
65.94	12.9481
66.16	8.73805
66.38	12.1934
66.6	12.1748
66.82	6.81944
67.04	12.8309
67.26	11.049
67.48	10.5586
67.7	11.4421
67.92	20.3147
68.14	7.45646
68.36	8.4764
68.58	22.422
68.8	6.31267
69.02	5.22072
69.24	12.9748
69.46	17.8444
69.68	15.72
69.9	12.155
70.12	16.5413
70.34	5.86959
70.56	1.83292
70.78	8.24311
71	6.15937
71.22	12.9396
71.44	21.9558
71.66	11.1629
71.88	14.6857
72.1	3.69363
72.32	13.9165
72.54	7.92247
72.76	5.04572
72.98	22.0412
73.2	18.6269
73.42	12.615
73.64	8.39915
73.86	8.35737
74.08	15.4323
74.3	4.76833
74.52	14.8813
74.74	8.51467
74.96	8.82843
75.18	9.69774
75.4	0.56596
75.62	13.5097
75.84	5.39232
76.06	14.8831
76.28	16.172
76.5	7.50134
76.72	12.6238
76.94	25.2709
77.16	12.3455
77.38	18.1085
77.6	26.2977
77.82	4.30395
78.04	17.322
78.26	17.137
78.48	4.25347
78.7	0.607826
78.92	7.90229
79.14	7.89656
79.36	8.26655
79.58	9.83054
79.8	10.7843
80.02	11.9136
80.24	16.9319
80.46	15.0249
80.68	19.7205
80.9	12.8807
81.12	6.69234
81.34	13.8529
81.56	2.96715
81.78	13.2495
82	1.25923
82.22	15.7211
82.44	4.44678
82.66	4.71917
82.88	10.5704
83.1	10.6962
83.32	3.50857
83.54	3.90231
83.76	7.79715
83.98	7.79107
84.2	2.52617
84.42	3.89623
84.64	10.3921
84.86	10.9247
85.08	10.9984
85.3	12.2058
85.52	6.43782
85.74	6.05595
85.96	5.47537
86.18	11.7011
86.4	19.3032
86.62	4.80716
86.84	11.8095
87.06	8.62713
87.28	11.0352
87.5	6.95094
87.72	14.8729
87.94	6.91998
88.16	9.25758
88.38	15.1063
88.6	10.2295
88.82	8.35553
89.04	18.1952
89.26	8.80959
89.48	16.4472
89.7	9.70842
89.92	11.5974
