Measurement: Powder, Xray Data XY Processed
Mineral: Kaliborite
Rruff sample: R060352
Ideal chemistry: KHMg_2_B_12_O_16_(OH)_10_4H_2_O
Locality: Inder Boron deposit, Atyrau (Gur'yev), Atyrau Oblast', Kazakhstan
Source: Herb Obodda
Description: Colorless fragment
Diffraction sample description: Powder
Measured chemistry: K_1.00_H_1.00_Mg_2.00_B_12.00_O_16_(OH)_10_Â·4H_2_O ; H and B not measured but estimated by stoichiometry
Cell parameters: a: 18.564(3) b: 8.4549(9) c: 14.671(1) alpha: 90 beta: 100.12(1) gamma: 90 volume: 2266.9(3) crystal system: monoclinic
x	intensity
5	0
5.22	4.409
5.44	7.846
5.66	7.833
5.88	9.285
6.1	7.835
6.32	1.347
6.54	5.003
6.76	8.581
6.98	2.513
7.2	0.52
7.42	1.066
7.64	3.6
7.86	8.961
8.08	1.474
8.3	4.943
8.52	11
8.74	3.005
8.96	5.985
9.18	10.362
9.4	0.944
9.62	12.808
9.84	8.681
10.06	3.429
10.28	10.365
10.5	5.697
10.72	6.262
10.94	2.73
11.16	2.905
11.38	3.011
11.6	18.749
11.82	4.572
12.04	21.799
12.26	272.911
12.48	25.121
12.7	35.638
12.92	17.536
13.14	1.71
13.36	11.295
13.58	37.106
13.8	8.002
14.02	22.688
14.24	245.715
14.46	29.685
14.68	16.86
14.9	13.818
15.12	1.268
15.34	4.199
15.56	6.326
15.78	2.631
16	13.005
16.22	124.738
16.44	8.355
16.66	7.427
16.88	16.668
17.1	3.743
17.32	16.36
17.54	43.454
17.76	7.62
17.98	10.646
18.2	25.028
18.42	0.961
18.64	17.235
18.86	13.862
19.08	1.81
19.3	6.797
19.52	6.133
19.74	9.274
19.96	18.817
20.18	11.294
20.4	14.739
20.62	2.084
20.84	9.585
21.06	31.107
21.28	8.495
21.5	11.113
21.72	4.576
21.94	13.987
22.16	10.388
22.38	12.564
22.6	8.585
22.82	0.583
23.04	23.685
23.26	119.496
23.48	38.913
23.7	25.541
23.92	38.57
24.14	3.827
24.36	16.591
24.58	9.51
24.8	7.89
25.02	16.932
25.24	14.215
25.46	68.178
25.68	8.621
25.9	14.497
26.12	1.476
26.34	26.76
26.56	96.439
26.78	2.005
27	16.51
27.22	23.686
27.44	27.244
27.66	28.558
27.88	9.875
28.1	17.503
28.32	1.43
28.54	30.001
28.76	148.556
28.98	11.254
29.2	3.92
29.42	2.318
29.64	11.808
29.86	31.996
30.08	19.099
30.3	18.093
30.52	5.113
30.74	8.227
30.96	6.356
31.18	84.475
31.4	16.564
31.62	9.377
31.84	5.91
32.06	3.775
32.28	13.432
32.5	20.45
32.72	65.225
32.94	25.239
33.16	7.441
33.38	8.949
33.6	27.986
33.82	20.296
34.04	18.275
34.26	41.19
34.48	6.835
34.7	8.334
34.92	16.641
35.14	1.952
35.36	13.071
35.58	4.061
35.8	16.378
36.02	44.432
36.24	38.473
36.46	8.401
36.68	11.007
36.9	0.761
37.12	3.676
37.34	30.436
37.56	10.185
37.78	50.555
38	15.236
38.22	54.84
38.44	61.621
38.66	10.912
38.88	2.31
39.1	19.451
39.32	8.422
39.54	13.613
39.76	0.293
39.98	6.727
40.2	28.134
40.42	41.269
40.64	14.678
40.86	4.349
41.08	5.662
41.3	8.154
41.52	5.732
41.74	11.821
41.96	13.517
42.18	8.089
42.4	2.936
42.62	0.365
42.84	10.612
43.06	11.123
43.28	31.166
43.5	33.473
43.72	39.312
43.94	9.516
44.16	9.182
44.38	12.258
44.6	45.714
44.82	22.741
45.04	15.017
45.26	8.121
45.48	12.034
45.7	3.283
45.92	7.707
46.14	11.069
46.36	4.821
46.58	14.597
46.8	4.754
47.02	0.811
47.24	6.604
47.46	10.998
47.68	6.07
47.9	9.771
48.12	4.346
48.34	23.715
48.56	9.249
48.78	22.416
49	16.501
49.22	15.36
49.44	10.261
49.66	7.643
49.88	5.021
50.1	2.933
50.32	9.569
50.54	5.336
50.76	10.036
50.98	1.133
51.2	12.506
51.42	4.964
51.64	15.268
51.86	10.765
52.08	5.918
52.3	9.791
52.52	8.663
52.74	9.677
52.96	13.768
53.18	2.076
53.4	3.4
53.62	22.26
53.84	16.093
54.06	2.059
54.28	5.033
54.5	16.601
54.72	15.921
54.94	7.715
55.16	4.674
55.38	1.75
55.6	15.318
55.82	7.904
56.04	5.159
56.26	17.467
56.48	10.689
56.7	3.296
56.92	3.025
57.14	10.345
57.36	13.863
57.58	9.112
57.8	15.424
58.02	11.634
58.24	3.276
58.46	7.373
58.68	13.336
58.9	0.667
59.12	11.708
59.34	3.678
59.56	13.793
59.78	1.487
60	4.515
60.22	12.322
60.44	11.921
60.66	6.07
60.88	10.009
61.1	6.959
61.32	1.575
61.54	7.665
61.76	4.935
61.98	19.129
62.2	5.492
62.42	14.614
62.64	5.814
62.86	7.004
63.08	0.114
63.3	1.644
63.52	3.622
63.74	10.834
63.96	1.093
64.18	1.062
64.4	10.389
64.62	1.701
64.84	11.319
65.06	5.461
65.28	1.873
65.5	11.974
65.72	6.329
65.94	11.325
66.16	4.582
66.38	15.797
66.6	7.82
66.82	14.55
67.04	9.536
67.26	0.495
67.48	1.476
67.7	11.143
67.92	5.958
68.14	7.942
68.36	2.91
68.58	8.763
68.8	1.745
69.02	0.657
69.24	1.668
69.46	0.991
69.68	9.175
69.9	7.198
70.12	1.327
70.34	10.674
70.56	13.883
70.78	1.061
71	5.865
71.22	2.813
71.44	1.943
71.66	1.942
71.88	3.735
72.1	12.609
72.32	5.702
72.54	4.119
72.76	7.76
72.98	6.574
73.2	11.493
73.42	4.455
73.64	5.608
73.86	6.769
74.08	7.666
74.3	8.837
74.52	16.818
74.74	5.963
74.96	13.556
75.18	10.506
75.4	6.413
75.62	5.384
75.84	8.395
76.06	2.344
76.28	0.506
76.5	7.799
76.72	9.767
76.94	0.07
77.16	8.905
77.38	1.19
77.6	4.59
77.82	9.587
78.04	3.594
78.26	11.694
78.48	17.577
78.7	11.121
78.92	4.891
79.14	4.899
79.36	8.785
79.58	0.477
79.8	6.526
80.02	4.535
80.24	1.199
80.46	6.824
80.68	9.979
80.9	6.107
81.12	0.207
81.34	8.137
81.56	6.186
81.78	7.504
82	6.257
82.22	4.437
82.44	6.197
82.66	7.969
82.88	5.16
83.1	0.945
83.32	4.062
83.54	1.342
83.76	2.325
83.98	3.143
84.2	11.016
84.42	6.216
84.64	0.088
84.86	6.014
85.08	11.064
85.3	4.88
85.52	7.866
85.74	1.955
85.96	2.945
86.18	5.017
86.4	12.033
86.62	8.903
86.84	7.844
87.06	3.828
87.28	9.082
87.5	13.972
87.72	1.907
87.94	7.058
88.16	0.227
88.38	1.473
88.6	7.565
88.82	2.706
89.04	4.763
89.26	7.467
89.48	7.803
89.7	10.036
89.92	7.225
