Measurement: Powder, Xray Data XY Processed
Mineral: Kapustinite
Rruff sample: R060896
Ideal chemistry: Na_6_Zr^4+^Si_6_O_16_(OH)_2_
Locality: Palitra pegmatite, Kedykverpakhk Mountain, Lovozero Massif, Russia
Source: Michael Scott
Description: Reddish brown vitreous massive fragment
Diffraction sample description: Powder, refined as cubic because peaks overlap too much to properly refine the monoclinic cell
Cell parameters: a: 10.5894(8) b: 10.5894(8) c: 10.5894(8) alpha: 58.379(4) beta: 58.379(4) gamma: 58.379(4) volume: 808.5(1) crystal system: rhombohedral
x	intensity
5	0
5.22	7.72588
5.44	9.97502
5.66	12.319
5.88	20.3426
6.1	17.6393
6.32	6.50977
6.54	2.64227
6.76	5.09566
6.98	11.5089
7.2	4.20043
7.42	2.3168
7.64	12.0168
7.86	10.622
8.08	4.15406
8.3	4.82975
8.52	5.0458
8.74	4.3109
8.96	4.98008
9.18	2.10343
9.4	10.6465
9.62	4.30671
9.84	6.28279
10.06	10.3507
10.28	20.1956
10.5	8.39795
10.72	15.1352
10.94	0.206849
11.16	11.7973
11.38	5.81776
11.6	0.587876
11.82	7.4072
12.04	20.1496
12.26	10.8613
12.48	12.068
12.7	8.92962
12.92	2.10454
13.14	13.1215
13.36	10.1639
13.58	13.703
13.8	4.90802
14.02	0.144442
14.24	10.1945
14.46	11.2708
14.68	16.1487
14.9	1.89702
15.12	0.664866
15.34	7.3809
15.56	4.18975
15.78	4.98393
16	5.77757
16.22	4.46566
16.44	14.1844
16.66	10.9088
16.88	11.1247
17.1	6.94684
17.32	1.35979
17.54	4.81261
17.76	12.8794
17.98	2.26952
18.2	20.8993
18.42	13.9783
18.64	15.1249
18.86	3.00916
19.08	7.97269
19.3	14.6151
19.52	5.89267
19.74	2.61859
19.96	4.37078
20.18	7.73741
20.4	12.3199
20.62	10.1443
20.84	11.0609
21.06	25.6774
21.28	21.8549
21.5	12.9917
21.72	3.86785
21.94	4.71243
22.16	19.6229
22.38	9.05307
22.6	0.720778
22.82	5.52183
23.04	12.2213
23.26	0.930775
23.48	0.165991
23.7	1.2209
23.92	8.65117
24.14	25.7644
24.36	1.48765
24.58	12.384
24.8	3.9103
25.02	3.04121
25.24	9.73648
25.46	2.40156
25.68	4.99569
25.9	2.36911
26.12	5.97151
26.34	0.441685
26.56	0.787077
26.78	39.6401
27	2.8815
27.22	50.0497
27.44	20.6272
27.66	9.73372
27.88	14.7427
28.1	14.9933
28.32	0.817505
28.54	13.7299
28.76	4.92058
28.98	11.2696
29.2	7.38564
29.42	4.76972
29.64	13.4993
29.86	12.5716
30.08	0.574606
30.3	5.88998
30.52	9.01657
30.74	2.3007
30.96	8.11666
31.18	20.7084
31.4	1.84951
31.62	3.04351
31.84	0.975792
32.06	23.2363
32.28	2.94004
32.5	5.32062
32.72	4.12323
32.94	4.58636
33.16	1.00863
33.38	5.64093
33.6	0.266212
33.82	32.0857
34.04	24.1857
34.26	10.335
34.48	8.0805
34.7	18.7484
34.92	19.3842
35.14	7.24766
35.36	0.164148
35.58	1.01622
35.8	8.38866
36.02	3.3682
36.24	1.65013
36.46	4.07902
36.68	4.62832
36.9	8.58659
37.12	2.67979
37.34	5.0608
37.56	5.46507
37.78	5.56507
38	2.93382
38.22	12.7068
38.44	3.88128
38.66	3.93766
38.88	9.8454
39.1	10.7767
39.32	4.36983
39.54	4.83314
39.76	11.1133
39.98	7.851
40.2	12.9859
40.42	6.59684
40.64	4.54703
40.86	2.36638
41.08	2.3357
41.3	12.4676
41.52	5.26975
41.74	5.1419
41.96	1.50421
42.18	3.28842
42.4	4.45817
42.62	5.18849
42.84	9.33567
43.06	13.2256
43.28	0.314446
43.5	8.27677
43.72	15.2755
43.94	11.1163
44.16	4.51858
44.38	7.47649
44.6	4.62614
44.82	2.48943
45.04	19.65
45.26	15.7356
45.48	9.78234
45.7	5.75009
45.92	7.70968
46.14	15.4899
46.36	8.16731
46.58	5.8726
46.8	4.89085
47.02	0.978535
47.24	9.19031
47.46	0.512354
47.68	2.22325
47.9	10.1755
48.12	0.152119
48.34	2.09886
48.56	1.23011
48.78	16.5788
49	0.496438
49.22	14.7212
49.44	9.54983
49.66	9.6549
49.88	1.52515
50.1	13.5551
50.32	18.57
50.54	0.310439
50.76	5.93763
50.98	4.04307
51.2	12.5012
51.42	13.7537
51.64	14.7671
51.86	2.92312
52.08	1.70698
52.3	5.61323
52.52	6.04171
52.74	8.30247
52.96	9.49711
53.18	9.87397
53.4	6.0128
53.62	8.82164
53.84	9.68316
54.06	7.74286
54.28	7.75368
54.5	1.72555
54.72	13.0679
54.94	6.78266
55.16	4.36681
55.38	17.7724
55.6	8.35412
55.82	0.310243
56.04	11.3355
56.26	13.1576
56.48	0.198642
56.7	12.125
56.92	6.2113
57.14	0.016767
57.36	1.05467
57.58	2.00482
57.8	8.80785
58.02	0.995849
58.24	5.3174
58.46	8.73738
58.68	9.38032
58.9	5.41379
59.12	8.58163
59.34	7.37195
59.56	9.79482
59.78	0.220675
60	15.7768
60.22	5.70429
60.44	2.71718
60.66	3.24451
60.88	6.22022
61.1	1.68054
61.32	6.57389
61.54	8.56453
61.76	12.528
61.98	9.32487
62.2	4.37893
62.42	15.6781
62.64	3.94074
62.86	2.36991
63.08	2.47559
63.3	2.62147
63.52	0.872882
63.74	8.09621
63.96	2.31682
64.18	4.70595
64.4	1.66795
64.62	10.0113
64.84	9.82248
65.06	5.94449
65.28	5.71887
65.5	8.03909
65.72	13.1031
65.94	2.25265
66.16	6.5879
66.38	6.6473
66.6	7.39149
66.82	7.2601
67.04	8.06819
67.26	4.922
67.48	5.87371
67.7	15.611
67.92	9.33616
68.14	5.47232
68.36	18.3412
68.58	0.90583
68.8	10.2851
69.02	8.47702
69.24	5.7434
69.46	4.93112
69.68	7.0153
69.9	10.9267
70.12	2.94767
70.34	0.027229
70.56	1.99743
70.78	8.06523
71	11.1068
71.22	5.83389
71.44	4.21094
71.66	4.13908
71.88	0.799569
72.1	9.45343
72.32	3.59901
72.54	7.91083
72.76	0.082399
72.98	2.18716
73.2	4.34435
73.42	8.39081
73.64	0.543502
73.86	4.18493
74.08	0.860734
74.3	4.03986
74.52	3.88012
74.74	2.84136
74.96	8.96088
75.18	0.893212
75.4	6.95986
75.62	2.03149
75.84	4.00786
76.06	11.1011
76.28	5.07294
76.5	1.11458
76.72	7.13549
76.94	4.37603
77.16	7.21818
77.38	13.2302
77.6	9.16103
77.82	0.931351
78.04	10.0192
78.26	4.34214
78.48	6.23234
78.7	0.609851
78.92	10.4811
79.14	2.65243
79.36	4.70223
79.58	5.75612
79.8	2.84695
80.02	1.96205
80.24	2.01191
80.46	11.0394
80.68	9.75829
80.9	11.9019
81.12	6.80543
81.34	7.80462
81.56	5.62942
81.78	1.80741
82	4.79233
82.22	0.822476
82.44	4.68466
82.66	10.787
82.88	7.78184
83.1	7.76168
83.32	7.69017
83.54	6.64635
83.76	5.65957
83.98	5.71434
84.2	6.4823
84.42	5.50441
84.64	2.41084
84.86	2.36061
85.08	7.4938
85.3	12.3668
85.52	7.55356
85.74	5.88928
85.96	11.0108
86.18	7.11393
86.4	11.0754
86.62	1.18795
86.84	1.29466
87.06	2.25934
87.28	11.3065
87.5	9.01616
87.72	5.86278
87.94	3.91906
88.16	12.3468
88.38	12.3471
88.6	9.49022
88.82	3.36003
89.04	3.22591
89.26	10.3481
89.48	1.67088
89.7	9.00762
89.92	1.39212
