Measurement: Powder, Xray Data XY Processed
Mineral: Kernite
Rruff sample: R050661
Ideal chemistry: Na_2_B_4_O_6_(OH)_2_3H_2_O
Locality: Boron, Kern County, California, USA
Source: Marcus Origlieri
Description: Colorless cleavage fragment
Diffraction sample description: Powder
Cell parameters: a: 7.0165(6) b: 9.1556(7) c: 15.6778(10) alpha: 90. beta: 108.863(7) gamma: 90. volume: 953.06(9) crystal system: monoclinic
x	intensity
5	0
5.22	7.614
5.44	17.901
5.66	10.675
5.88	9.118
6.1	15.32
6.32	24.525
6.54	17.357
6.76	25.071
6.98	14.6
7.2	16.005
7.42	1.267
7.64	4.464
7.86	0.22
8.08	9.556
8.3	5.17
8.52	10.879
8.74	7.968
8.96	4.081
9.18	7.278
9.4	7.853
9.62	9.779
9.84	11.042
10.06	0.333
10.28	3.778
10.5	6.71
10.72	12.725
10.94	7.695
11.16	10.246
11.38	250.842
11.6	29.484
11.82	151.945
12.04	552.047
12.26	35.592
12.48	1.14
12.7	5.737
12.92	18.951
13.14	21.572
13.36	1604.38
13.58	33.287
13.8	5.025
14.02	3.729
14.24	2.883
14.46	5.193
14.68	59.447
14.9	31.646
15.12	0.292
15.34	0.657
15.56	9.399
15.78	2.509
16	3.307
16.22	2.932
16.44	12.243
16.66	5.246
16.88	2.956
17.1	9.083
17.32	2.255
17.54	4.74
17.76	5.869
17.98	4.542
18.2	11.036
18.42	0.875
18.64	5.934
18.86	8.779
19.08	31.827
19.3	6.097
19.52	0.194
19.74	1.576
19.96	10.012
20.18	9.928
20.4	33.522
20.62	61.501
20.84	14.572
21.06	44.503
21.28	5.075
21.5	2.27
21.72	1.664
21.94	2.954
22.16	4.15
22.38	1.299
22.6	5.725
22.82	207.939
23.04	12.298
23.26	20.364
23.48	48.645
23.7	5.188
23.92	47.714
24.14	39.089
24.36	5.028
24.58	8.986
24.8	10.936
25.02	3.27
25.24	24.185
25.46	46.75
25.68	5.994
25.9	33.402
26.12	3.173
26.34	3.231
26.56	68.86
26.78	8.596
27	107.022
27.22	20.562
27.44	420.425
27.66	19.19
27.88	0.752
28.1	6.517
28.32	39.865
28.54	250.876
28.76	36.653
28.98	12.902
29.2	13.316
29.42	10.651
29.64	6.761
29.86	17.768
30.08	3.359
30.3	2.903
30.52	7.095
30.74	29.827
30.96	110.765
31.18	129.284
31.4	38.034
31.62	7.765
31.84	9.74
32.06	7.432
32.28	60.487
32.5	13.629
32.72	7.508
32.94	15.031
33.16	8.216
33.38	26.461
33.6	22.773
33.82	1.108
34.04	3.184
34.26	30.806
34.48	136.664
34.7	5.745
34.92	132.841
35.14	12.396
35.36	0.308
35.58	17.085
35.8	45.316
36.02	15.842
36.24	51.814
36.46	132.328
36.68	11.362
36.9	6.739
37.12	22.655
37.34	1.674
37.56	17.86
37.78	118.401
38	9.974
38.22	3.999
38.44	10.691
38.66	6.159
38.88	2.783
39.1	26.126
39.32	36.972
39.54	4.357
39.76	29.608
39.98	13.226
40.2	22.513
40.42	43.822
40.64	0.793
40.86	28.766
41.08	3.98
41.3	15.39
41.52	28.043
41.74	4.747
41.96	32.502
42.18	15.211
42.4	11.819
42.62	20.191
42.84	4.7
43.06	7.241
43.28	92.124
43.5	73.139
43.72	32.497
43.94	20.5
44.16	28.537
44.38	0.597
44.6	9.666
44.82	11.481
45.04	15.455
45.26	39.75
45.48	9.978
45.7	11.867
45.92	6.626
46.14	4.787
46.36	15.204
46.58	12.625
46.8	2.012
47.02	7.572
47.24	13.011
47.46	54.225
47.68	101.784
47.9	113.63
48.12	1.802
48.34	24.527
48.56	16.747
48.78	2.955
49	2.209
49.22	9.387
49.44	4.793
49.66	15.203
49.88	22.135
50.1	32.157
50.32	6.023
50.54	4.574
50.76	12.247
50.98	19.997
51.2	15.928
51.42	19.823
51.64	1.198
51.86	5.685
52.08	11.49
52.3	0.178
52.52	14.28
52.74	5.775
52.96	3.347
53.18	52.746
53.4	29.607
53.62	1.247
53.84	10.077
54.06	1.494
54.28	4.821
54.5	11.701
54.72	14.122
54.94	7.528
55.16	1.117
55.38	15.468
55.6	7.815
55.82	26.755
56.04	0.337
56.26	0.522
56.48	14.809
56.7	36.959
56.92	8.904
57.14	13.966
57.36	3.405
57.58	0.653
57.8	14.028
58.02	2.563
58.24	5.922
58.46	7.293
58.68	10.622
58.9	6.935
59.12	8.586
59.34	17.704
59.56	8.964
59.78	10.782
60	10.717
60.22	2.289
60.44	5.627
60.66	1.906
60.88	5.913
61.1	6.131
61.32	3.259
61.54	12.95
61.76	8.075
61.98	4.043
62.2	1.149
62.42	12.111
62.64	9.502
62.86	4.452
63.08	8.219
63.3	0.49
63.52	1.399
63.74	3.521
63.96	16.045
64.18	9.316
64.4	5.148
64.62	2.975
64.84	14.808
65.06	5.526
65.28	1.529
65.5	0.606
65.72	6.087
65.94	3.353
66.16	5.374
66.38	5.483
66.6	14.405
66.82	5.594
67.04	1.845
67.26	0.956
67.48	0.901
67.7	3.956
67.92	0.423
68.14	7.542
68.36	8.347
68.58	1.356
68.8	5.772
69.02	10.79
69.24	0.833
69.46	2.356
69.68	8.937
69.9	6.325
70.12	3.277
70.34	7.429
70.56	4.554
70.78	11.749
71	6.953
71.22	7.723
71.44	0.663
71.66	1.379
71.88	5.772
72.1	0.445
72.32	2.291
72.54	3.321
72.76	0.425
72.98	4.688
73.2	11.645
73.42	12.799
73.64	7.971
73.86	5.138
74.08	9.114
74.3	2.44
74.52	3.799
74.74	4.913
74.96	6.21
75.18	3.907
75.4	3.899
75.62	0.865
75.84	11.584
76.06	13.401
76.28	6.149
76.5	3.004
76.72	11.75
76.94	5.46
77.16	8.442
77.38	4.36
77.6	6.428
77.82	2.479
78.04	0.728
78.26	5.071
78.48	1.161
78.7	3.208
78.92	2.516
79.14	2.404
79.36	9.425
79.58	8.508
79.8	4.443
80.02	9.664
80.24	20.794
80.46	21.788
80.68	7.713
80.9	13.992
81.12	2.919
81.34	9.923
81.56	7.9
81.78	7.983
82	3.859
82.22	9.77
82.44	10.519
82.66	7.464
82.88	0.513
83.1	13.418
83.32	8.126
83.54	0.027
83.76	4.127
83.98	5.029
84.2	4.162
84.42	3.088
84.64	2.047
84.86	4.791
85.08	13.465
85.3	7.363
85.52	7.399
85.74	7.437
85.96	15.428
86.18	5.586
86.4	4.883
86.62	2.752
86.84	5.944
87.06	4.006
87.28	3.18
87.5	3.513
87.72	11.645
87.94	4.689
88.16	7.023
88.38	9.235
88.6	4.94
88.82	2.647
89.04	9.742
89.26	7.885
89.48	0.194
89.7	5.203
89.92	12.597
