Measurement: Powder, Xray Data XY Processed
Mineral: Kinoite
Rruff sample: R040155
Ideal chemistry: Ca_2_Cu^2+^_2_Si_3_O_10_2H_2_O
Locality: Christmas mine, Christmas, Gila County, Arizona, USA
Source: University of Arizona Mineral Museum
Description: Pale blue crust
Diffraction sample description: Powder, using Mo radiation
Measured chemistry: Ca_2.00_Cu_2.00_Si_3.00_O_10_Â·2H_2_O
Cell parameters: a: 7.06(2) b: 12.907(7) c: 5.67(2) alpha: 90 beta: 96.16(6) gamma: 90 volume: 513.7(7) crystal system: monoclinic
x	intensity
6.51	0
6.6	19.203
6.69	7.91162
6.78	9.09399
6.87	5.66867
6.96	0.618011
7.05	13.7798
7.14	27.5714
7.23	35.4205
7.32	42.7696
7.41	38.3998
7.5	23.1669
7.59	24.7106
7.68	11.1202
7.77	16.5322
7.86	27.0004
7.95	26.3684
8.04	39.508
8.13	23.8323
8.22	21.4219
8.31	64.6219
8.4	166.13
8.49	290.823
8.58	338.463
8.67	325.863
8.76	329.495
8.85	253.496
8.94	142.45
9.03	105.632
9.12	107.759
9.21	118.005
9.3	127.086
9.39	124.364
9.48	98.2656
9.57	72.6942
9.66	45.7268
9.75	27.8277
9.84	13.4604
9.93	16.0499
10.02	48.2165
10.11	72.5548
10.2	117.554
10.29	124.018
10.38	141.827
10.47	120.937
10.56	80.8284
10.65	53.1988
10.74	52.517
10.83	32.788
10.92	36.4269
11.01	45.8685
11.1	47.5543
11.19	45.0728
11.28	31.0557
11.37	36.5545
11.46	50.2212
11.55	68.9125
11.64	70.7603
11.73	70.9947
11.82	104.632
11.91	126.895
12	133.928
12.09	135.35
12.18	115.747
12.27	104.24
12.36	68.8408
12.45	28.634
12.54	6.02127
12.63	34.0154
12.72	68.2812
12.81	144.074
12.9	175.966
12.99	217.7
13.08	283.733
13.17	356.99
13.26	410.49
13.35	455.345
13.44	508.252
13.53	457.44
13.62	316.004
13.71	230.857
13.8	202.393
13.89	162.87
13.98	125.046
14.07	98.1179
14.16	64.2079
14.25	37.3312
14.34	53.7226
14.43	90.7048
14.52	112.857
14.61	128.324
14.7	152.971
14.79	128.315
14.88	103.894
14.97	89.884
15.06	61.5195
15.15	41.8664
15.24	27.1534
15.33	10.4727
15.42	3.28217
15.51	2.59946
15.6	21.4263
15.69	53.2069
15.78	68.5344
15.87	57.5224
15.96	60.0879
16.05	65.5525
16.14	92.687
16.23	117.658
16.32	121.71
16.41	117.497
16.5	89.6998
16.59	58.5418
16.68	15.3053
16.77	12.9061
16.86	22.9645
16.95	21.8939
17.04	5.90878
17.13	43.713
17.22	101.577
17.31	160.397
17.4	220.517
17.49	256.471
17.58	266.864
17.67	274.562
17.76	267.916
17.85	226.437
17.94	152.451
18.03	115.567
18.12	72.1856
18.21	50.1838
18.3	44.8524
18.39	32.4736
18.48	39.2578
18.57	53.9083
18.66	76.456
18.75	104.865
18.84	128.911
18.93	153.676
19.02	193.869
19.11	258.803
19.2	329.111
19.29	355.462
19.38	328.395
19.47	282.518
19.56	230.588
19.65	192.365
19.74	180.428
19.83	152.955
19.92	111.248
20.01	71.0671
20.1	46.1427
20.19	33.7112
20.28	28.5022
20.37	25.199
20.46	24.2691
20.55	18.9951
20.64	13.7191
20.73	16.0264
20.82	3.28155
20.91	5.97345
21	10.7808
21.09	4.08672
21.18	10.103
21.27	6.38184
21.36	6.22736
21.45	4.37032
21.54	15.5759
21.63	30.1615
21.72	60.1862
21.81	92.1842
21.9	95.8626
21.99	71.6738
22.08	36.2687
22.17	13.7943
22.26	9.22359
22.35	18.0085
22.44	35.603
22.53	42.0501
22.62	53.6131
22.71	32.682
22.8	10.2408
22.89	1.43625
22.98	5.73874
23.07	8.30122
23.16	8.63936
23.25	6.93642
23.34	15.8437
23.43	17.6843
23.52	22.022
23.61	21.8204
23.7	31.1519
23.79	51.2129
23.88	80.756
23.97	90.3716
24.06	83.9322
24.15	94.9103
24.24	96.1055
24.33	87.3287
24.42	85.2352
24.51	65.9279
24.6	30.5752
24.69	19.9231
24.78	23.8199
24.87	54.7393
24.96	108.833
25.05	162.092
25.14	206.139
25.23	204.327
25.32	175.135
25.41	124.513
25.5	81.1486
25.59	50.1551
25.68	31.0526
25.77	32.8738
25.86	42.1431
25.95	84.1972
26.04	110.045
26.13	110.046
26.22	84.8188
26.31	45.2527
26.4	17.7389
26.49	13.0908
26.58	16.2864
26.67	19.3375
26.76	19.4352
26.85	17.8454
26.94	34.0933
27.03	42.8822
27.12	54.76
27.21	67.6249
27.3	86.1402
27.39	79.7171
27.48	59.5089
27.57	33.2579
27.66	18.6086
27.75	9.7608
27.84	2.38786
27.93	6.86984
28.02	29.3002
28.11	37.8507
28.2	25.3266
28.29	13.9836
28.38	3.36775
28.47	7.69534
28.56	0.902588
28.65	2.75511
28.74	0.401657
28.83	19.4988
28.92	38.9172
29.01	51.4055
29.1	68.6948
29.19	71.69
29.28	75.0542
29.37	80.1127
29.46	75.7768
29.55	71.6563
29.64	53.9827
29.73	43.8811
29.82	36.577
29.91	22.9167
30	16.3342
30.09	10.1344
30.18	10.9653
30.27	19.7857
30.36	18.7773
30.45	20.2557
30.54	29.9146
30.63	29.1044
30.72	17.0965
30.81	14.4562
30.9	20.7209
30.99	24.437
31.08	23.8379
31.17	19.6018
31.26	14.6429
31.35	2.85977
31.44	3.66661
31.53	6.56729
31.62	3.72906
31.71	14.4166
31.8	20.2653
31.89	20.7779
31.98	24.0631
32.07	24.825
32.16	19.6059
32.25	11.1488
32.34	12.1164
32.43	17.0633
32.52	24.1993
32.61	35.3799
32.7	42.3261
32.79	50.3349
32.88	61.4789
32.97	63.775
33.06	62.9318
33.15	53.0651
33.24	38.8378
33.33	23.8176
33.42	17.5792
33.51	8.67018
33.6	4.72345
33.69	1.01576
33.78	5.29396
33.87	2.64603
33.96	7.22203
34.05	18.3934
34.14	23.2126
34.23	16.0654
34.32	16.2462
34.41	21.5455
34.5	11.0456
34.59	9.02464
34.68	1.76946
34.77	9.36357
34.86	16.9205
34.95	28.8947
35.04	31.6811
35.13	36.7751
35.22	30.1842
35.31	32.5054
35.4	14.9493
35.49	15.6807
35.58	18.4085
35.67	28.4206
35.76	36.3753
35.85	38.2852
35.94	34.3723
36.03	26.2092
36.12	15.4215
36.21	20.7334
36.3	14.7245
36.39	3.75063
36.48	6.85074
36.57	1.40942
36.66	11.7912
36.75	13.7459
36.84	30.7369
36.93	40.5372
37.02	45.6765
37.11	46.4186
37.2	38.84
37.29	23.6529
37.38	13.5926
37.47	5.14449
37.56	14.8317
37.65	2.02344
37.74	2.24937
37.83	12.1968
37.92	17.6576
38.01	19.472
38.1	13.9509
38.19	15.7802
38.28	8.54655
38.37	0.965576
38.46	1.53021
38.55	0.158401
38.64	0.475632
38.73	4.80864
38.82	18.8651
38.91	24.8241
39	25.9033
39.09	24.5286
39.18	25.8703
39.27	30.7549
39.36	26.6977
39.45	37.7895
39.54	37.4326
39.63	20.1436
39.72	19.9097
39.81	20.566
39.9	30.3431
39.99	23.4934
40.08	30.3873
40.17	41.3669
40.26	24.5595
40.35	17.9254
40.44	13.4139
40.53	17.7024
40.62	13.697
40.71	18.4415
40.8	17.437
40.89	22.8649
40.98	13.7558
41.07	3.56174
41.16	6.89633
41.25	21.4849
41.34	1.18542
41.43	5.76652
41.52	16.9708
41.61	9.44536
41.7	4.01865
41.79	4.71715
