Measurement: Powder, Xray Data XY Processed
Mineral: Krohnkite
Rruff sample: R060111
Ideal chemistry: Na_2_Cu^2+^(S^6+^O_4_)_2_2H_2_O
Locality: Chuquicamata, Chile
Source: University of Arizona Mineral Museum
Description: Green bladed crystals
Diffraction sample description: Powder
Measured chemistry: Na_2.00_Cu_1.00_(S_1.00_O_4_)_2_Â·2H_2_O; H_2_O estimated by difference
Cell parameters: a: 5.8037(5) b: 12.6571(9) c: 5.5128(4) alpha: 90 beta: 108.415(6) gamma: 90 volume: 384.23(3) crystal system: monoclinic
x	intensity
5	0
5.22	16.567
5.44	5.755
5.66	26.201
5.88	21.246
6.1	1.926
6.32	15.777
6.54	20.477
6.76	11.648
6.98	3.48
7.2	8.993
7.42	31.975
7.64	0.865
7.86	3.871
8.08	23.102
8.3	1.664
8.52	11.894
8.74	13.45
8.96	14.892
9.18	1.403
9.4	0.081
9.62	11.531
9.84	3.314
10.06	2.196
10.28	13.567
10.5	27.664
10.72	6.917
10.94	13.917
11.16	10.365
11.38	11.981
11.6	3.848
11.82	25.412
12.04	0.095
12.26	11.769
12.48	4.315
12.7	9.763
12.92	10.759
13.14	4.637
13.36	38.175
13.58	25.176
13.8	24.249
14.02	503.163
14.24	18.601
14.46	7.345
14.68	5.982
14.9	3.272
15.12	15.663
15.34	24.51
15.56	0.793
15.78	14.646
16	33.465
16.22	44.564
16.44	5.77
16.66	1.45
16.88	22.71
17.1	11.481
17.32	7.428
17.54	170.379
17.76	8.337
17.98	2.861
18.2	6.706
18.42	31.138
18.64	2.811
18.86	12.235
19.08	8.674
19.3	8.402
19.52	12.445
19.74	3.082
19.96	9.242
20.18	2.952
20.4	0.528
20.62	53.308
20.84	15.87
21.06	4.554
21.28	63.117
21.5	36.339
21.72	7.779
21.94	13.782
22.16	0.628
22.38	11.277
22.6	1.434
22.82	0.445
23.04	56.821
23.26	17.756
23.48	6.89
23.7	8.996
23.92	241.308
24.14	27.156
24.36	12.949
24.58	22.573
24.8	19.495
25.02	12.583
25.24	3.842
25.46	3.382
25.68	18.258
25.9	26.794
26.12	4.824
26.34	1.81
26.56	128.118
26.78	18.765
27	29.289
27.22	227.618
27.44	1.754
27.66	0.033
27.88	152.247
28.1	28.667
28.32	7.686
28.54	11.9
28.76	156.712
28.98	3.842
29.2	2.313
29.42	19.377
29.64	0.265
29.86	23.339
30.08	10.404
30.3	26.708
30.52	286.059
30.74	28.062
30.96	8.883
31.18	9.591
31.4	3.081
31.62	36.603
31.84	0.848
32.06	99.702
32.28	133.313
32.5	75.16
32.72	61.364
32.94	109.689
33.16	6.706
33.38	0.598
33.6	5.354
33.82	29.528
34.04	11.128
34.26	94.647
34.48	18.955
34.7	47.303
34.92	3.126
35.14	21.536
35.36	4.227
35.58	63.269
35.8	18.376
36.02	13.127
36.24	3.106
36.46	6.966
36.68	0.662
36.9	8.626
37.12	17.522
37.34	29.978
37.56	19.805
37.78	10.767
38	6.633
38.22	28.283
38.44	33.823
38.66	6.593
38.88	6.756
39.1	59.75
39.32	36.663
39.54	23.683
39.76	38.116
39.98	11.444
40.2	3.77
40.42	0.359
40.64	57.885
40.86	28.022
41.08	3.656
41.3	7.592
41.52	9.247
41.74	8.327
41.96	25.331
42.18	9.016
42.4	9.494
42.62	18.504
42.84	48.948
43.06	11.314
43.28	14.228
43.5	39.685
43.72	17.603
43.94	39.755
44.16	15.037
44.38	15.365
44.6	13.979
44.82	16.309
45.04	17.427
45.26	31.591
45.48	4.738
45.7	18.373
45.92	10.506
46.14	14.432
46.36	15.279
46.58	0.96
46.8	37.474
47.02	47.662
47.24	24.831
47.46	11.652
47.68	2.316
47.9	1.379
48.12	1.037
48.34	11.671
48.56	2.49
48.78	19.537
49	50.951
49.22	41.562
49.44	18.892
49.66	5.12
49.88	7.932
50.1	48.303
50.32	13.929
50.54	10.872
50.76	1.422
50.98	4.048
51.2	19.671
51.42	30.793
51.64	23.005
51.86	38.87
52.08	20.099
52.3	2.718
52.52	4.92
52.74	10.047
52.96	8.959
53.18	10.599
53.4	0.54
53.62	15.582
53.84	6.069
54.06	16.541
54.28	20.708
54.5	45.317
54.72	40.942
54.94	12.139
55.16	8.155
55.38	13.063
55.6	15.476
55.82	8.379
56.04	17.107
56.26	14.867
56.48	14.427
56.7	14.058
56.92	4.78
57.14	39.809
57.36	29.736
57.58	18.995
57.8	4.248
58.02	13.161
58.24	26.017
58.46	14.488
58.68	13.013
58.9	2.081
59.12	19.535
59.34	76.745
59.56	7.302
59.78	7.663
60	16.805
60.22	20.589
60.44	11.875
60.66	20.627
60.88	34.24
61.1	10.753
61.32	5.766
61.54	18.924
61.76	12.58
61.98	7.549
62.2	2.498
62.42	9.155
62.64	21.597
62.86	0.646
63.08	12.637
63.3	4.827
63.52	21.182
63.74	3.593
63.96	23.568
64.18	4.995
64.4	14.709
64.62	9.236
64.84	12.792
65.06	17.778
65.28	9.659
65.5	20.744
65.72	2.132
65.94	28.333
66.16	9.478
66.38	23.11
66.6	14.282
66.82	1.215
67.04	12.304
67.26	20.524
67.48	7.928
67.7	8.066
67.92	4.694
68.14	33.778
68.36	14.189
68.58	15.055
68.8	24.324
69.02	7.413
69.24	1.082
69.46	7.285
69.68	17
69.9	14.213
70.12	10.1
70.34	8.117
70.56	17.933
70.78	0.437
71	22.604
71.22	4.045
71.44	11.647
71.66	6.529
71.88	18.477
72.1	22.906
72.32	2.918
72.54	12.025
72.76	2.788
72.98	0.979
73.2	6.169
73.42	17.752
73.64	0.955
73.86	4.538
74.08	0.532
74.3	10.797
74.52	7.824
74.74	19.74
74.96	0.511
75.18	5.976
75.4	15.998
75.62	8.454
75.84	6.503
76.06	6.607
76.28	11.03
76.5	2.001
76.72	13.713
76.94	12.694
77.16	23.084
77.38	1.666
77.6	5.153
77.82	1.144
78.04	15.594
78.26	14.916
78.48	19.102
78.7	5.104
78.92	7.613
79.14	11.035
79.36	10.499
79.58	17.571
79.8	7.284
80.02	14.679
80.24	16.312
80.46	12.902
80.68	7.598
80.9	14.046
81.12	14.505
81.34	12.926
81.56	15.226
81.78	2.227
82	1.624
82.22	2.039
82.44	14.434
82.66	4.965
82.88	3.697
83.1	6.128
83.32	10.205
83.54	18.764
83.76	20.711
83.98	9.196
84.2	12.73
84.42	13.269
84.64	3.545
84.86	5.448
85.08	8.252
85.3	5.813
85.52	11.004
85.74	4.487
85.96	8.999
86.18	18.488
86.4	1.225
86.62	6.987
86.84	25.157
87.06	0.02
87.28	10.976
87.5	17.262
87.72	4.613
87.94	23.442
88.16	5.739
88.38	5.567
88.6	0.323
88.82	2.516
89.04	0.479
89.26	22.319
89.48	17.016
89.7	18.641
89.92	4.923
