Measurement: Powder, Xray Data XY Processed
Mineral: Krohnkite
Rruff sample: R050604
Ideal chemistry: Na_2_Cu^2+^(S^6+^O_4_)_2_2H_2_O
Locality: Chuquicamata, Chile
Source: University of Arizona Mineral Museum
Description: Green elongated prismatic crystals with orange natrojarosite and minor colorless leightonite
Diffraction sample description: Powder
Measured chemistry: Na_2.00_Cu_1.00_(S_1.00_O_4_)_2_Â·2H_2_O
Cell parameters: a: 5.8082(6) b: 12.6628(9) c: 5.5167(5) alpha: 90. beta: 108.440(5) gamma: 90. volume: 384.91(3) crystal system: monoclinic
x	intensity
5	0
5.22	15.969
5.44	16.605
5.66	17.727
5.88	14.251
6.1	16.309
6.32	17.79
6.54	28.643
6.76	16.957
6.98	13.74
7.2	10.821
7.42	23.395
7.64	1.265
7.86	24.031
8.08	8.265
8.3	25.47
8.52	17.812
8.74	4.406
8.96	8.34
9.18	7.26
9.4	17.684
9.62	12.932
9.84	7.013
10.06	2.105
10.28	10.124
10.5	7.21
10.72	15.509
10.94	28.528
11.16	12.847
11.38	7.96
11.6	17.684
11.82	10.486
12.04	27.408
12.26	1.932
12.48	21.63
12.7	16.779
12.92	23.126
13.14	6.106
13.36	4.274
13.58	29.679
13.8	23.08
14.02	627.441
14.24	8.276
14.46	12.048
14.68	4.03
14.9	8.44
15.12	14.069
15.34	14.672
15.56	19.084
15.78	10.97
16	33.983
16.22	19.952
16.44	21.69
16.66	2.901
16.88	16.257
17.1	18.038
17.32	3.679
17.54	208.309
17.76	20.386
17.98	1.55
18.2	1.675
18.42	10.948
18.64	10.471
18.86	16.122
19.08	15.527
19.3	1.581
19.52	8.088
19.74	8.459
19.96	5.062
20.18	1.719
20.4	12.101
20.62	38.76
20.84	4.71
21.06	8.911
21.28	41.286
21.5	58.527
21.72	2.506
21.94	8.436
22.16	30.558
22.38	20.572
22.6	19.459
22.82	20.234
23.04	14.482
23.26	15.84
23.48	5.396
23.7	23.03
23.92	233.491
24.14	21.126
24.36	13.938
24.58	9.012
24.8	9.9
25.02	14.671
25.24	8.263
25.46	28.945
25.68	17.265
25.9	15.372
26.12	7.325
26.34	11.28
26.56	121.188
26.78	26.504
27	25.502
27.22	240.397
27.44	14.756
27.66	12.876
27.88	129.668
28.1	24.93
28.32	16.334
28.54	2.499
28.76	183.591
28.98	23.556
29.2	1.373
29.42	9.798
29.64	4.13
29.86	4.889
30.08	10.657
30.3	16.602
30.52	303.113
30.74	27.036
30.96	24.304
31.18	27.479
31.4	0.218
31.62	17.034
31.84	3.637
32.06	10.35
32.28	127.728
32.5	81.316
32.72	43.619
32.94	132.94
33.16	11.204
33.38	6.102
33.6	5.995
33.82	20.034
34.04	0.323
34.26	111.833
34.48	23.192
34.7	47.051
34.92	14.416
35.14	16.995
35.36	9.179
35.58	16.55
35.8	5.28
36.02	13.188
36.24	14.925
36.46	6.449
36.68	9.645
36.9	12.034
37.12	13.083
37.34	12.643
37.56	3.518
37.78	12
38	15.325
38.22	40.245
38.44	13.004
38.66	11.962
38.88	10.224
39.1	43.304
39.32	32.249
39.54	13.291
39.76	22.996
39.98	43.402
40.2	2.33
40.42	13.921
40.64	58.387
40.86	18.494
41.08	15.47
41.3	13.517
41.52	0.453
41.74	25.199
41.96	11.086
42.18	17.27
42.4	14.004
42.62	24.57
42.84	49.198
43.06	7.815
43.28	7.353
43.5	34.612
43.72	22.898
43.94	11.971
44.16	11.336
44.38	7.964
44.6	7.509
44.82	9.932
45.04	34.263
45.26	25.706
45.48	15.523
45.7	13.443
45.92	16.426
46.14	28.268
46.36	1.087
46.58	10.106
46.8	8.266
47.02	38.042
47.24	14.189
47.46	13.463
47.68	24.314
47.9	16.669
48.12	16.116
48.34	7.779
48.56	14.704
48.78	20.75
49	47.491
49.22	52.457
49.44	25.815
49.66	3.149
49.88	6.724
50.1	41.708
50.32	0.858
50.54	11.255
50.76	12.578
50.98	7.353
51.2	20.348
51.42	18.792
51.64	11.318
51.86	33.234
52.08	32.427
52.3	3.696
52.52	6.994
52.74	14.642
52.96	9.38
53.18	18.189
53.4	13.943
53.62	3.161
53.84	12.771
54.06	20.751
54.28	22.222
54.5	59.639
54.72	37.64
54.94	33.596
55.16	13.634
55.38	8.534
55.6	16.96
55.82	4.444
56.04	13.837
56.26	7.266
56.48	4.537
56.7	7.582
56.92	8.709
57.14	33.028
57.36	8.087
57.58	20.985
57.8	17.498
58.02	13.433
58.24	24.41
58.46	15.47
58.68	12.539
58.9	12.657
59.12	28.939
59.34	31.465
59.56	12.285
59.78	12.588
60	5.504
60.22	17.46
60.44	8.628
60.66	15.505
60.88	21.751
61.1	13.847
61.32	11.231
61.54	29.936
61.76	1.707
61.98	14.205
62.2	12.883
62.42	14.927
62.64	8.281
62.86	22.054
63.08	20.679
63.3	12.908
63.52	28.163
63.74	10.732
63.96	1.757
64.18	1.471
64.4	11.152
64.62	5.61
64.84	28.915
65.06	18.911
65.28	3.587
65.5	11.695
65.72	13.815
65.94	2.181
66.16	13.154
66.38	0.258
66.6	0.685
66.82	10.805
67.04	3.204
67.26	1.232
67.48	17.371
67.7	6.79
67.92	7.687
68.14	33.067
68.36	10.197
68.58	20.303
68.8	21.405
69.02	13.6
69.24	14.874
69.46	1.618
69.68	12.105
69.9	23.725
70.12	16.795
70.34	8.461
70.56	17.037
70.78	7.818
71	8.173
71.22	11.599
71.44	0.872
71.66	3.954
71.88	1.707
72.1	13.716
72.32	12.786
72.54	20.474
72.76	7.224
72.98	14.087
73.2	12.561
73.42	20.827
73.64	12.277
73.86	6.269
74.08	7.48
74.3	2.553
74.52	6.542
74.74	19.624
74.96	12.61
75.18	3.649
75.4	17.46
75.62	26.53
75.84	11.951
76.06	9.141
76.28	13.469
76.5	10.753
76.72	7.407
76.94	25.129
77.16	18.474
77.38	12.874
77.6	8.076
77.82	17.488
78.04	11.848
78.26	10.243
78.48	17.608
78.7	32.64
78.92	0.439
79.14	15.118
79.36	8.982
79.58	12.472
79.8	11.953
80.02	13.624
80.24	6.78
80.46	19.775
80.68	5.246
80.9	16.319
81.12	13.039
81.34	20.872
81.56	14.518
81.78	6.682
82	10.881
82.22	11.345
82.44	7.711
82.66	10.904
82.88	6.253
83.1	9.144
83.32	10.505
83.54	8.64
83.76	11.752
83.98	18.588
84.2	4.513
84.42	13.73
84.64	13.255
84.86	13.122
85.08	14.277
85.3	19.462
85.52	15.584
85.74	0.746
85.96	7.318
86.18	0.618
86.4	14.625
86.62	22.843
86.84	5.725
87.06	7.479
87.28	18.42
87.5	12.703
87.72	26.632
87.94	6.951
88.16	6.805
88.38	6.322
88.6	18.681
88.82	16.968
89.04	16.471
89.26	19.97
89.48	13.298
89.7	10.607
89.92	1.857
