Measurement: Powder, Xray Data XY Processed
Mineral: Kurnakovite
Rruff sample: R050393
Ideal chemistry: MgB_3_O_3_(OH)_5_5H_2_O
Locality: Kramer deposit, Boron, Kern County, California, USA
Source: Marcus Origlieri
Description: Colorless to gray cleavage fragment
Diffraction sample description: Powder
Measured chemistry: Mg_1.00_B_3_O_3_(OH)_5_·5H_2_O ; = lighter phase. The darker phase: (Mg_0.97_Al_0.02_[box]_0.01_)_Σ=1_B_3_O_3_(OH)_5_·5H_2_O ; B not measured but estimated by stoichiometry
Cell parameters: a: 8.3457(9) b: 10.6059(6) c: 6.4463(4) alpha: 98.895(6) beta: 108.943(7) gamma: 105.55(1) volume: 501.31(4) crystal system: triclinic
x	intensity
5	0
5.22	17.4947
5.44	23.0462
5.66	9.1596
5.88	9.88272
6.1	10.0388
6.32	23.5291
6.54	12.0494
6.76	11.4397
6.98	9.39911
7.2	9.19628
7.42	0.976604
7.64	5.77852
7.86	11.2962
8.08	8.01557
8.3	9.30524
8.52	6.55524
8.74	13.1934
8.96	56.7002
9.18	19.1756
9.4	12.5998
9.62	12.0129
9.84	4.06643
10.06	7.03114
10.28	7.36613
10.5	4.37795
10.72	9.46164
10.94	3.14773
11.16	17.7176
11.38	12.2993
11.6	5.96575
11.82	33.672
12.04	83.3927
12.26	627.258
12.48	19.2766
12.7	0.030386
12.92	4.54277
13.14	6.0726
13.36	6.93776
13.58	2.12401
13.8	5.28934
14.02	1.12931
14.24	3.35214
14.46	5.3975
14.68	0.988853
14.9	15.9682
15.12	289.109
15.34	31.8037
15.56	9.89552
15.78	1.25146
16	15.0458
16.22	2.85038
16.44	4.33767
16.66	1.65934
16.88	11.9011
17.1	10.2007
17.32	75.1349
17.54	17.2393
17.76	320.342
17.98	153.016
18.2	24.236
18.42	4.32297
18.64	0.290051
18.86	8.46856
19.08	7.79462
19.3	14.9329
19.52	18.4148
19.74	18.5623
19.96	4.09007
20.18	19.7169
20.4	18.7806
20.62	4.00808
20.84	10.9347
21.06	33.3966
21.28	48.3052
21.5	2.29455
21.72	12.0303
21.94	1.8479
22.16	8.86494
22.38	3.22391
22.6	333.644
22.82	15.8421
23.04	38.526
23.26	7.91318
23.48	44.9924
23.7	21.4387
23.92	9.39157
24.14	20.4747
24.36	0.647167
24.58	1.37318
24.8	24.5717
25.02	25.0995
25.24	7.87386
25.46	8.53894
25.68	389.304
25.9	22.2463
26.12	17.3807
26.34	4.47957
26.56	71.1614
26.78	4.88207
27	2.8359
27.22	17.1702
27.44	11.6253
27.66	1.5444
27.88	12.8074
28.1	119.444
28.32	89.9174
28.54	52.8647
28.76	0.464809
28.98	9.56875
29.2	22.0244
29.42	68.9203
29.64	10.8832
29.86	5.82374
30.08	8.89783
30.3	13.3765
30.52	54.8425
30.74	113.978
30.96	41.6765
31.18	74.8761
31.4	135.218
31.62	6.79679
31.84	5.138
32.06	35.2948
32.28	15.4214
32.5	92.2491
32.72	14.1504
32.94	2.1302
33.16	17.1831
33.38	35.1806
33.6	50.8976
33.82	4.52442
34.04	1.02434
34.26	94.3681
34.48	5.56597
34.7	130.373
34.92	48.4643
35.14	25.7234
35.36	22.0814
35.58	53.9978
35.8	24.0746
36.02	17.6234
36.24	159.411
36.46	84.9221
36.68	2.54027
36.9	35.6113
37.12	2.03975
37.34	12.6378
37.56	37.612
37.78	44.9026
38	15.2427
38.22	5.04696
38.44	11.8738
38.66	12.1641
38.88	2.58838
39.1	15.9054
39.32	5.64918
39.54	15.4435
39.76	71.653
39.98	7.98275
40.2	2.49227
40.42	0.599686
40.64	54.8683
40.86	0.186075
41.08	67.5692
41.3	15.6982
41.52	10.7512
41.74	29.6389
41.96	8.32863
42.18	63.4601
42.4	16.2447
42.62	23.2202
42.84	5.43937
43.06	31.4963
43.28	52.6251
43.5	24.1538
43.72	24.409
43.94	69.3113
44.16	34.9764
44.38	2.25446
44.6	2.49386
44.82	3.35739
45.04	3.11354
45.26	23.6192
45.48	11.2797
45.7	15.9421
45.92	18.6088
46.14	30.3829
46.36	45.846
46.58	19.7633
46.8	37.0823
47.02	9.19741
47.24	15.6354
47.46	24.4482
47.68	10.1167
47.9	5.33474
48.12	1.02868
48.34	20.0985
48.56	10.6827
48.78	9.6876
49	13.119
49.22	9.96245
49.44	15.5822
49.66	8.08795
49.88	30.4058
50.1	1.18857
50.32	16.3399
50.54	4.0535
50.76	1.9505
50.98	1.82474
51.2	13.7832
51.42	20.3854
51.64	7.98434
51.86	1.01088
52.08	1.84028
52.3	2.03138
52.52	9.17507
52.74	46.2437
52.96	8.33758
53.18	0.514498
53.4	18.4514
53.62	16.6858
53.84	24.7535
54.06	4.83896
54.28	2.96321
54.5	3.04234
54.72	2.45017
54.94	8.85635
55.16	3.02368
55.38	8.9995
55.6	3.93157
55.82	5.69187
56.04	10.3297
56.26	19.6686
56.48	25.0729
56.7	17.1274
56.92	12.1427
57.14	4.89414
57.36	3.56991
57.58	0.524719
57.8	11.3493
58.02	18.1462
58.24	15.5407
58.46	19.089
58.68	137.034
58.9	8.48696
59.12	7.27877
59.34	5.8396
59.56	5.91983
59.78	8.80432
60	8.6858
60.22	22.9425
60.44	17.8983
60.66	2.14707
60.88	9.62304
61.1	8.3383
61.32	8.89179
61.54	8.80126
61.76	14.1137
61.98	35.5193
62.2	17.9934
62.42	4.50288
62.64	3.95782
62.86	8.64135
63.08	12.1589
63.3	19.4673
63.52	21.7333
63.74	5.29967
63.96	1.71274
64.18	8.72449
64.4	14.639
64.62	13.6521
64.84	1.52517
65.06	10.9755
65.28	12.2603
65.5	10.2519
65.72	11.3717
65.94	0.466114
66.16	7.96188
66.38	5.04765
66.6	10.5386
66.82	10.5498
67.04	16.5353
67.26	2.66377
67.48	5.61996
67.7	5.27193
67.92	15.1004
68.14	7.08898
68.36	5.128
68.58	0.908914
68.8	1.03056
69.02	6.10145
69.24	8.26166
69.46	7.54821
69.68	13.5432
69.9	9.65091
70.12	1.07194
70.34	2.05961
70.56	6.33712
70.78	9.44915
71	9.73318
71.22	5.98872
71.44	5.89041
71.66	6.46537
71.88	8.37562
72.1	2.39061
72.32	2.42166
72.54	6.57415
72.76	7.37739
72.98	13.1722
73.2	5.18511
73.42	6.18313
73.64	11.1734
73.86	12.0226
74.08	2.48552
74.3	4.72541
74.52	5.80402
74.74	8.27704
74.96	9.16434
75.18	12.2387
75.4	9.57937
75.62	3.62317
75.84	8.58568
76.06	5.45548
76.28	14.5577
76.5	5.52607
76.72	2.56165
76.94	8.44004
77.16	7.1032
77.38	12.0255
77.6	8.45409
77.82	7.50636
78.04	12.4389
78.26	15.6493
78.48	7.88606
78.7	5.87945
78.92	0.822578
79.14	6.87538
79.36	5.08198
79.58	2.15387
79.8	5.13847
80.02	6.74556
80.24	4.01545
80.46	12.0003
80.68	12.7232
80.9	3.71344
81.12	11.948
81.34	3.26714
81.56	8.15554
81.78	10.988
82	7.08547
82.22	3.4484
82.44	2.4425
82.66	5.20214
82.88	6.54668
83.1	6.70863
83.32	10.8554
83.54	42.7689
83.76	12.617
83.98	4.78773
84.2	0.136672
84.42	5.37663
84.64	19.4688
84.86	3.96245
85.08	9.17995
85.3	8.07926
85.52	6.21817
85.74	0.353793
85.96	7.49076
86.18	2.20084
86.4	3.89101
86.62	1.86459
86.84	13.1544
87.06	3.14455
87.28	8.04444
87.5	3.04983
87.72	1.08361
87.94	6.20378
88.16	4.23956
88.38	12.1972
88.6	8.31384
88.82	5.03137
89.04	8.85812
89.26	4.54781
89.48	4.48555
89.7	7.53607
89.92	5.10428
