Measurement: Powder, Xray Data XY Processed
Mineral: Kurnakovite
Rruff sample: R050105
Ideal chemistry: MgB_3_O_3_(OH)_5_5H_2_O
Locality: Kramer deposit, Boron, Kern County, California, USA
Source: Rock Currier
Description: Tabular single crystal
Diffraction sample description: Powder
Measured chemistry: MgB_3_O_3_(OH)_5_Â·5H_2_O
Cell parameters: a: 8.338(1) b: 10.6058(6) c: 6.4396(7) alpha: 98.92(2) beta: 108.91(1) gamma: 105.544(9) volume: 500.40(7) crystal system: triclinic
x	intensity
5	0
5.22	6.997
5.44	7.281
5.66	9.155
5.88	19.241
6.1	20.701
6.32	7.44
6.54	3.579
6.76	15.083
6.98	1.656
7.2	10.497
7.42	10.506
7.64	13.01
7.86	2.461
8.08	4.951
8.3	3.571
8.52	7.824
8.74	12.066
8.96	162.184
9.18	2.63
9.4	3.955
9.62	6.876
9.84	12.39
10.06	2.316
10.28	3.923
10.5	8.949
10.72	1.187
10.94	11.848
11.16	9.399
11.38	3.075
11.6	0.237
11.82	13.589
12.04	53.379
12.26	657.483
12.48	13.14
12.7	0.404
12.92	12.441
13.14	9.031
13.36	4.936
13.58	1.162
13.8	10.431
14.02	3.549
14.24	9.71
14.46	4.536
14.68	8.59
14.9	16.571
15.12	208.357
15.34	17.241
15.56	10.813
15.78	2.696
16	10.893
16.22	10.252
16.44	2.746
16.66	4.233
16.88	4.658
17.1	13.791
17.32	39.213
17.54	37.12
17.76	199.909
17.98	378.538
18.2	9.966
18.42	1.896
18.64	0.335
18.86	0.547
19.08	0.607
19.3	2.466
19.52	29.222
19.74	13.161
19.96	9.761
20.18	33.542
20.4	17.692
20.62	14.187
20.84	3.108
21.06	49.544
21.28	16.668
21.5	7.885
21.72	6.862
21.94	2.878
22.16	1.095
22.38	13.602
22.6	103.271
22.82	17.817
23.04	69.189
23.26	12.486
23.48	7.279
23.7	10.927
23.92	27.146
24.14	1.133
24.36	4.809
24.58	17.026
24.8	35.561
25.02	15.553
25.24	3.794
25.46	17.711
25.68	2023.72
25.9	8.483
26.12	9.728
26.34	5.357
26.56	81.85
26.78	8.24
27	1.522
27.22	0.68
27.44	10.832
27.66	8.46
27.88	9.201
28.1	105.255
28.32	53.915
28.54	40.404
28.76	8.385
28.98	3.26
29.2	12.543
29.42	33.366
29.64	3.269
29.86	11.848
30.08	7.181
30.3	12.419
30.52	61.832
30.74	66.217
30.96	44.779
31.18	152.563
31.4	73.212
31.62	8.677
31.84	11.122
32.06	70.138
32.28	22.529
32.5	31.012
32.72	6.599
32.94	11.557
33.16	11.893
33.38	40.797
33.6	26.151
33.82	11.373
34.04	1.936
34.26	18.736
34.48	1.352
34.7	55.785
34.92	44.056
35.14	5.599
35.36	82.546
35.58	49.587
35.8	4.691
36.02	9.247
36.24	161.611
36.46	45.606
36.68	3.135
36.9	29.348
37.12	1.619
37.34	7.203
37.56	46.938
37.78	37.357
38	6.307
38.22	6.388
38.44	4.436
38.66	5.515
38.88	6.247
39.1	6.827
39.32	10.914
39.54	16.752
39.76	96.715
39.98	6.953
40.2	5.18
40.42	5.427
40.64	3.721
40.86	1.756
41.08	33.085
41.3	13.843
41.52	17.032
41.74	34.082
41.96	3.526
42.18	54.647
42.4	6.482
42.62	8.512
42.84	0.838
43.06	37.036
43.28	106.425
43.5	37.52
43.72	16.372
43.94	18.197
44.16	14.062
44.38	3.859
44.6	4.098
44.82	15.141
45.04	10.052
45.26	15.698
45.48	10.531
45.7	13.604
45.92	37.087
46.14	22.59
46.36	18.763
46.58	20.656
46.8	10.027
47.02	19.993
47.24	22.293
47.46	14.801
47.68	10.254
47.9	6.579
48.12	2.162
48.34	0.318
48.56	16.51
48.78	23.579
49	32.081
49.22	13.565
49.44	31.167
49.66	1.565
49.88	25.799
50.1	19.465
50.32	17.025
50.54	9.773
50.76	3.257
50.98	12.794
51.2	10.595
51.42	44.558
51.64	10.905
51.86	11.089
52.08	15.397
52.3	11.599
52.52	2.478
52.74	22.478
52.96	12.369
53.18	18.486
53.4	18.203
53.62	5.603
53.84	31.484
54.06	5.482
54.28	0.382
54.5	0.58
54.72	12.501
54.94	5.389
55.16	15.318
55.38	8.233
55.6	11.842
55.82	5.557
56.04	9.452
56.26	40.516
56.48	22.93
56.7	13.802
56.92	8.653
57.14	9.755
57.36	1.717
57.58	4.197
57.8	13.564
58.02	11.334
58.24	12.93
58.46	15.985
58.68	17.027
58.9	5.474
59.12	9.382
59.34	0.371
59.56	2.706
59.78	4.895
60	2.825
60.22	27.934
60.44	1.119
60.66	2.001
60.88	9.111
61.1	9.044
61.32	9.576
61.54	6.28
61.76	4.947
61.98	16.575
62.2	9.998
62.42	3.274
62.64	5.868
62.86	1.048
63.08	8.154
63.3	7.285
63.52	14.312
63.74	7.514
63.96	16.179
64.18	18.852
64.4	9.182
64.62	12.223
64.84	2.242
65.06	12.653
65.28	10.961
65.5	11.156
65.72	14.89
65.94	20.033
66.16	4.956
66.38	2.102
66.6	9.205
66.82	7.041
67.04	8.201
67.26	7.331
67.48	9.073
67.7	14.895
67.92	7.955
68.14	10.591
68.36	12.535
68.58	5.621
68.8	14.645
69.02	10.006
69.24	5.066
69.46	7.415
69.68	9.457
69.9	7.314
70.12	6.782
70.34	6.813
70.56	4.851
70.78	9.986
71	3.125
71.22	1.463
71.44	5.546
71.66	6.787
71.88	5.677
72.1	7.836
72.32	17.946
72.54	12.697
72.76	1.248
72.98	5.845
73.2	7.918
73.42	16.075
73.64	4.298
73.86	3.003
74.08	12.669
74.3	11.632
74.52	7.448
74.74	8.836
74.96	18.892
75.18	14.89
75.4	13.731
75.62	7.722
75.84	5.006
76.06	10.94
76.28	7.245
76.5	0.75
76.72	8.39
76.94	6.397
77.16	0.065
77.38	6.264
77.6	0.319
77.82	8.377
78.04	15.53
78.26	9.042
78.48	0.345
78.7	8.033
78.92	8.356
79.14	11.319
79.36	10.613
79.58	1.426
79.8	7.154
80.02	7.069
80.24	4.966
80.46	6.84
80.68	2.341
80.9	8.104
81.12	2.397
81.34	5.372
81.56	3.483
81.78	4.349
82	2.535
82.22	3.662
82.44	2.846
82.66	7.231
82.88	7.939
83.1	7.136
83.32	6.305
83.54	10.13
83.76	8.162
83.98	0.24
84.2	9.299
84.42	2.354
84.64	5.407
84.86	10.538
85.08	3.837
85.3	1.348
85.52	6.426
85.74	0.438
85.96	2.625
86.18	0.704
86.4	4.865
86.62	1.075
86.84	11.227
87.06	13.521
87.28	6.569
87.5	3.808
87.72	8.988
87.94	2.252
88.16	10.56
88.38	3.575
88.6	4.454
88.82	6.079
89.04	0.129
89.26	3.932
89.48	24.181
89.7	5.467
89.92	1.585
