Measurement: Powder, Xray Data XY Processed
Mineral: Kyanite
Rruff sample: R040119
Ideal chemistry: Al_2_OSiO_4_
Locality: Rutherford County, North Carolina, USA
Source: University of Arizona Mineral Museum
Description: Blue bladed crystal
Diffraction sample description: Powder
Measured chemistry: (Al_0.99_Fe^3+^_0.01_)_2_OSi_1.00_O_4_
Cell parameters: a: 7.1240(4) b: 7.8517(2) c: 5.5762(2) alpha: 89.86(1) beta: 101.13(1) gamma: 106.032(4) volume: 293.70(1) crystal system: triclinic
x	intensity
5	0
5.22	0.314005
5.44	18.3853
5.66	10.5088
5.88	15.1319
6.1	18.0139
6.32	3.98225
6.54	2.63915
6.76	13.5286
6.98	5.26778
7.2	7.02614
7.42	3.77937
7.64	14.55
7.86	4.34424
8.08	2.54598
8.3	4.04645
8.52	7.51514
8.74	10.5737
8.96	2.51408
9.18	14.413
9.4	2.68274
9.62	10.0876
9.84	7.46633
10.06	13.7486
10.28	10.7379
10.5	11.203
10.72	1.33826
10.94	0.662828
11.16	6.982
11.38	10.1644
11.6	12.6416
11.82	4.6921
12.04	3.45073
12.26	8.29176
12.48	1.06692
12.7	5.11133
12.92	8.22773
13.14	10.2638
13.36	6.10319
13.58	7.94354
13.8	0.10148
14.02	7.52184
14.24	10.4903
14.46	14.4721
14.68	8.48512
14.9	5.87571
15.12	13.1556
15.34	4.97514
15.56	8.05388
15.78	4.23073
16	5.32446
16.22	7.59689
16.44	2.28051
16.66	5.44188
16.88	9.51617
17.1	5.61098
17.32	6.33453
17.54	5.01491
17.76	6.05108
17.98	2.83823
18.2	3.9293
18.42	10.3909
18.64	8.05802
18.86	4.86709
19.08	6.83296
19.3	8.02291
19.52	12.0291
19.74	7.0273
19.96	16.0248
20.18	17.3051
20.4	9.36683
20.62	50.0175
20.84	11.2433
21.06	6.29363
21.28	5.39442
21.5	5.48315
21.72	4.4747
21.94	8.14516
22.16	11.3405
22.38	3.20874
22.6	8.06669
22.82	7.99413
23.04	0.699095
23.26	4.76878
23.48	7.52582
23.7	58.6978
23.92	13.6919
24.14	2.46776
24.36	3.18104
24.58	3.83548
24.8	6.35145
25.02	5.86496
25.24	20.2309
25.46	0.788859
25.68	8.39918
25.9	63.6936
26.12	17.008
26.34	11.3039
26.56	337.467
26.78	53.2775
27	6.74979
27.22	5.49684
27.44	7.24911
27.66	16.5358
27.88	43.0152
28.1	203.646
28.32	17.1193
28.54	12.4018
28.76	0.292292
28.98	3.40469
29.2	2.09477
29.42	5.72655
29.64	30.8057
29.86	5.13091
30.08	4.60543
30.3	122.934
30.52	11.1801
30.74	4.57541
30.96	3.78435
31.18	0.871858
31.4	3.08012
31.62	5.1727
31.84	0.030869
32.06	8.23768
32.28	7.22455
32.5	3.64748
32.72	4.39786
32.94	9.88209
33.16	126.514
33.38	57.2272
33.6	8.23507
33.82	8.35977
34.04	1.65156
34.26	9.75475
34.48	32.9042
34.7	1.12377
34.92	0.44803
35.14	1.23595
35.36	3.9979
35.58	44.2438
35.8	154.656
36.02	8.60326
36.24	7.87241
36.46	18.5205
36.68	5.75377
36.9	4.8226
37.12	7.8812
37.34	14.5573
37.56	3.28114
37.78	13.1326
38	32.1608
38.22	99.4192
38.44	23.7028
38.66	24.0845
38.88	2.96625
39.1	9.8528
39.32	8.59021
39.54	0.78116
39.76	10.8992
39.98	5.17842
40.2	2.99494
40.42	24.623
40.64	26.6432
40.86	72.5515
41.08	4.48307
41.3	1.23396
41.52	31.5461
41.74	57.0748
41.96	20.8558
42.18	3.83211
42.4	3.12602
42.62	13.7909
42.84	10.4324
43.06	0.362659
43.28	7.87382
43.5	0.009217
43.72	6.79373
43.94	3.05271
44.16	0.454375
44.38	2.73168
44.6	4.38067
44.82	4.57426
45.04	6.60887
45.26	59.6302
45.48	13.3194
45.7	2.5319
45.92	11.8571
46.14	27.3165
46.36	124.075
46.58	15.6361
46.8	42.763
47.02	167.278
47.24	69.592
47.46	9.57638
47.68	4.27953
47.9	5.11919
48.12	4.80112
48.34	29.4292
48.56	10.259
48.78	12.0291
49	1.595
49.22	1.09868
49.44	14.3687
49.66	9.56912
49.88	2.14449
50.1	3.97444
50.32	1.39825
50.54	1.25586
50.76	5.00161
50.98	12.5332
51.2	3.13304
51.42	10.267
51.64	15.2568
51.86	71.3883
52.08	9.57717
52.3	7.41752
52.52	13.0582
52.74	0.472647
52.96	4.00913
53.18	0.477079
53.4	0.135881
53.62	2.11772
53.84	9.297
54.06	6.47581
54.28	1.6377
54.5	7.65354
54.72	23.2524
54.94	8.97094
55.16	1.04172
55.38	12.2868
55.6	9.01643
55.82	3.75747
56.04	9.79624
56.26	2.593
56.48	4.8469
56.7	25.6555
56.92	12.2389
57.14	5.61479
57.36	8.51777
57.58	1.94874
57.8	29.8165
58.02	37.9069
58.24	0.245652
58.46	10.6679
58.68	20.2775
58.9	4.60415
59.12	2.29206
59.34	11.7149
59.56	11.5173
59.78	3.60884
60	11.0606
60.22	11.0026
60.44	4.92691
60.66	6.44259
60.88	9.90587
61.1	13.4595
61.32	5.36611
61.54	27.6739
61.76	46.9067
61.98	11.4929
62.2	8.29459
62.42	0.176685
62.64	12.6757
62.86	23.2614
63.08	58.4504
63.3	5.85774
63.52	14.2954
63.74	5.61998
63.96	10.7293
64.18	11.1685
64.4	4.86153
64.62	0.624002
64.84	1.47122
65.06	3.17102
65.28	9.85166
65.5	1.99228
65.72	1.43993
65.94	15.354
66.16	18.9091
66.38	4.70544
66.6	8.96442
66.82	8.73811
67.04	14.6944
67.26	18.0631
67.48	3.58992
67.7	3.24049
67.92	48.5805
68.14	152.858
68.36	49.0077
68.58	9.32083
68.8	2.78468
69.02	4.11245
69.24	5.65394
69.46	18.1925
69.68	25.2291
69.9	18.2704
70.12	295.846
70.34	166.771
70.56	3.1123
70.78	9.74537
71	7.19149
71.22	9.50868
71.44	12.1117
71.66	11.4558
71.88	7.73125
72.1	7.41347
72.32	4.92295
72.54	1.27549
72.76	5.53451
72.98	7.95617
73.2	15.8489
73.42	12.7553
73.64	9.68182
73.86	7.6269
74.08	9.57092
74.3	2.40834
74.52	4.32844
74.74	8.67902
74.96	3.49962
75.18	10.3205
75.4	17.7893
75.62	5.90076
75.84	7.10782
76.06	7.26643
76.28	7.40181
76.5	8.032
76.72	11.3551
76.94	6.62055
77.16	2.52523
77.38	3.78244
77.6	1.06151
77.82	3.31161
78.04	2.45516
78.26	8.60599
78.48	10.7681
78.7	8.71282
78.92	2.23334
79.14	10.107
79.36	3.96793
79.58	4.11035
79.8	5.93288
80.02	5.71627
80.24	9.36923
80.46	10.112
80.68	6.60655
80.9	1.35879
81.12	6.10197
81.34	17.0708
81.56	11.3845
81.78	8.50655
82	3.32252
82.22	8.84455
82.44	6.07663
82.66	13.0217
82.88	21.3963
83.1	12.8204
83.32	1.948
83.54	6.29781
83.76	9.67732
83.98	8.55926
84.2	5.65831
84.42	5.71582
84.64	4.29975
84.86	1.83673
85.08	1.29545
85.3	8.39903
85.52	9.27683
85.74	5.10428
85.96	5.02592
86.18	0.17791
86.4	3.6565
86.62	4.66008
86.84	1.81156
87.06	3.90405
87.28	0.962048
87.5	8.02139
87.72	4.4273
87.94	1.64179
88.16	28.8321
88.38	15.2723
88.6	12.959
88.82	6.30021
89.04	12.0981
89.26	4.06932
89.48	3.93088
89.7	5.45395
89.92	10.1568
