Measurement: Powder, Xray Data XY Processed
Mineral: Langite
Rruff sample: R060090
Ideal chemistry: Cu^2+^_4_S^6+^O_4_(OH)_6_2H_2_O
Locality: Allihies mine, County Cork, Ireland
Source: University of Arizona Mineral Museum
Description: Blue skeletal prismatic crystals in snowflake-like groupings, associated with brochantite
Diffraction sample description: Powder
Measured chemistry: Cu_4.00_(S_1.00_O_4_)(OH)_6_Â·2H_2_O ; darker phase: Cu_4_SO_4_(OH)_6_ ; lighter phase
Cell parameters: a: 7.1294(9) b: 6.0334(6) c: 11.2311(6) alpha: 90 beta: 89.99(2) gamma: 90 volume: 483.10(7) crystal system: monoclinic
x	intensity
5	0
5.22	51.1932
5.44	9.60082
5.66	22.1141
5.88	26.4944
6.1	24.2255
6.32	8.25131
6.54	25.7691
6.76	15.6847
6.98	26.0676
7.2	2.31127
7.42	13.002
7.64	11.8505
7.86	2.68144
8.08	12.7911
8.3	17.8025
8.52	14.9993
8.74	7.94482
8.96	5.63763
9.18	12.7314
9.4	23.2903
9.62	4.9393
9.84	17.6947
10.06	0.900391
10.28	7.78268
10.5	1.84787
10.72	8.63556
10.94	22.6587
11.16	2.17358
11.38	12.4563
11.6	1.95883
11.82	9.55633
12.04	9.47495
12.26	27.7677
12.48	2078.36
12.7	116.419
12.92	35.5333
13.14	22.5505
13.36	19.7238
13.58	2.86441
13.8	18.7745
14.02	27.5463
14.24	31.4224
14.46	4.11965
14.68	24.4505
14.9	5.80553
15.12	22.6202
15.34	12.2798
15.56	6.61073
15.78	9.1513
16	28.5453
16.22	11.2762
16.44	3.99936
16.66	40.1789
16.88	25.2267
17.1	8.15368
17.32	19.2096
17.54	42.4193
17.76	2.37844
17.98	9.79877
18.2	6.17425
18.42	13.3804
18.64	9.60779
18.86	18.4305
19.08	9.62927
19.3	13.9829
19.52	9.17889
19.74	2.52488
19.96	13.3113
20.18	34.4146
20.4	13.9672
20.62	11.5356
20.84	36.9822
21.06	18.1769
21.28	24.9167
21.5	9.09761
21.72	10.2655
21.94	30.2975
22.16	21.9166
22.38	14.9007
22.6	11.1995
22.82	34.7634
23.04	12.6069
23.26	19.3535
23.48	4.02055
23.7	4.46086
23.92	3.18868
24.14	24.1577
24.36	4.12143
24.58	25.0468
24.8	19.8456
25.02	551.249
25.24	59.752
25.46	9.06723
25.68	25.1934
25.9	7.91651
26.12	20.631
26.34	14.3246
26.56	2.80675
26.78	10.0611
27	14.2756
27.22	23.4351
27.44	35.7593
27.66	6.8464
27.88	0.833923
28.1	18.4392
28.32	8.68755
28.54	7.41394
28.76	12.9057
28.98	19.2297
29.2	29.2116
29.42	12.7821
29.64	10.7554
29.86	5.33164
30.08	22.0909
30.3	20.5359
30.52	12.4574
30.74	18.4859
30.96	20.1001
31.18	8.61271
31.4	6.47177
31.62	7.74174
31.84	18.7505
32.06	53.2994
32.28	8.47179
32.5	21.6561
32.72	3.43018
32.94	13.8892
33.16	24.6595
33.38	31.4173
33.6	44.1391
33.82	65.4842
34.04	13.3216
34.26	49.127
34.48	74.0912
34.7	14.9176
34.92	5.85729
35.14	3.6313
35.36	8.61724
35.58	4.10271
35.8	24.8433
36.02	108.593
36.24	81.9862
36.46	30.4072
36.68	3.47086
36.9	7.31094
37.12	6.11852
37.34	6.20097
37.56	7.3175
37.78	22.8739
38	44.667
38.22	24.4954
38.44	12.1189
38.66	17.0344
38.88	17.4606
39.1	28.1338
39.32	13.2614
39.54	3.79729
39.76	22.576
39.98	24.6574
40.2	2.48317
40.42	1.09332
40.64	10.7683
40.86	68.8665
41.08	50.9123
41.3	11.3833
41.52	1.58527
41.74	23.5116
41.96	23.1339
42.18	3.88815
42.4	90.3723
42.62	57.8301
42.84	19.2055
43.06	17.842
43.28	18.3287
43.5	0.279999
43.72	0.651772
43.94	13.1601
44.16	9.99686
44.38	6.37117
44.6	14.9674
44.82	18.5649
45.04	12.4143
45.26	8.58351
45.48	17.0768
45.7	19.2161
45.92	23.3651
46.14	15.7241
46.36	0.284458
46.58	30.7389
46.8	16.8204
47.02	15.0818
47.24	22.903
47.46	18.5933
47.68	10.1758
47.9	8.86396
48.12	23.7093
48.34	14.4104
48.56	21.8809
48.78	12.5328
49	19.9405
49.22	10.2111
49.44	2.08203
49.66	11.2781
49.88	16.3423
50.1	24.771
50.32	48.274
50.54	36.3138
50.76	13.0563
50.98	6.9892
51.2	17.6056
51.42	55.264
51.64	78.5829
51.86	26.6496
52.08	21.2759
52.3	7.17006
52.52	23.771
52.74	29.1811
52.96	4.78407
53.18	42.2684
53.4	15.4208
53.62	12.4448
53.84	5.97276
54.06	3.74465
54.28	12.0073
54.5	17.1338
54.72	22.2017
54.94	5.30977
55.16	20.8288
55.38	1.64306
55.6	16.7464
55.82	10.011
56.04	14.1564
56.26	5.85003
56.48	16.5748
56.7	16.7973
56.92	17.6077
57.14	9.6703
57.36	13.7639
57.58	26.8543
57.8	29.8397
58.02	41.9582
58.24	30.5992
58.46	23.6954
58.68	21.6071
58.9	20.9781
59.12	3.95905
59.34	13.0162
59.56	55.2091
59.78	43.7789
60	14.7001
60.22	8.75439
60.44	10.5684
60.66	19.0032
60.88	3.86018
61.1	18.4736
61.32	9.57204
61.54	32.931
61.76	11.0739
61.98	10.6648
62.2	16.8757
62.42	19.7244
62.64	20.0026
62.86	60.6437
63.08	18.9767
63.3	24.9942
63.52	14.9252
63.74	16.7246
63.96	29.0434
64.18	26.4179
64.4	13.9789
64.62	28.91
64.84	8.91271
65.06	5.7943
65.28	18.5412
65.5	21.5925
65.72	18.1314
65.94	0.670929
66.16	7.79308
66.38	10.048
66.6	31.397
66.82	20.2051
67.04	19.1587
67.26	1.9357
67.48	5.87821
67.7	20.4577
67.92	13.331
68.14	22.0487
68.36	16.5329
68.58	11.8356
68.8	11.0767
69.02	12.5627
69.24	12.4946
69.46	3.76819
69.68	20.233
69.9	10.0456
70.12	8.02146
70.34	4.59417
70.56	3.32085
70.78	12.8019
71	11.2547
71.22	11.9293
71.44	27.4078
71.66	10.0458
71.88	9.08437
72.1	11.7095
72.32	36.9596
72.54	13.4012
72.76	8.47987
72.98	31.5982
73.2	11.122
73.42	23.16
73.64	7.29523
73.86	5.14584
74.08	9.94553
74.3	11.5217
74.52	10.0894
74.74	17.8141
74.96	19.7064
75.18	28.6056
75.4	4.61047
75.62	30.1665
75.84	24.5607
76.06	8.81343
76.28	8.23227
76.5	26.0925
76.72	33.8699
76.94	22.3801
77.16	6.57352
77.38	14.7308
77.6	26.1087
77.82	14.9225
78.04	0.889626
78.26	24.2264
78.48	6.62135
78.7	15.0697
78.92	1.13503
79.14	11.7098
79.36	15.8976
79.58	20.2628
79.8	10.9163
80.02	13.3685
80.24	4.07911
80.46	7.14344
80.68	28.0598
80.9	6.00671
81.12	17.0574
81.34	3.79258
81.56	10.1444
81.78	11.7025
82	8.22853
82.22	13.5397
82.44	8.96893
82.66	5.47451
82.88	17.5106
83.1	11.2001
83.32	16.2409
83.54	20.1486
83.76	3.12669
83.98	3.18818
84.2	8.10958
84.42	12.4825
84.64	13.4312
84.86	21.903
85.08	10.2513
85.3	15.604
85.52	1.71267
85.74	20.0985
85.96	14.504
86.18	19.7665
86.4	15.9468
86.62	5.67738
86.84	15.669
87.06	12.944
87.28	14.654
87.5	12.5421
87.72	11.5213
87.94	24.1463
88.16	1.10939
88.38	28.9403
88.6	22.2438
88.82	23.8669
89.04	13.5039
89.26	9.42348
89.48	33.9914
89.7	36.2884
89.92	23.7745
