Measurement: Powder, Xray Data XY Processed
Mineral: Langbeinite
Rruff sample: R070285
Ideal chemistry: K_2_Mg_2_(S^6+^O_4_)_3_
Locality: Carlsbad, New Mexico, USA
Source: Michael Scott
Description: Colorless to gray granular massive
Diffraction sample description: Powder
Cell parameters: a: 9.9209(1) b: 9.9209(1) c: 9.9209(1) alpha: 90 beta: 90 gamma: 90 volume: 976.45(4) crystal system: cubic
x	intensity
5	0
5.22	3.96513
5.44	14.4851
5.66	17.9191
5.88	8.5129
6.1	8.29686
6.32	9.51148
6.54	17.7642
6.76	4.78616
6.98	9.71441
7.2	16.1537
7.42	5.03124
7.64	6.07446
7.86	20.2919
8.08	11.0082
8.3	16.1164
8.52	7.16245
8.74	2.02608
8.96	21.2661
9.18	2.10709
9.4	2.68763
9.62	7.74049
9.84	8.07624
10.06	9.60966
10.28	6.35693
10.5	7.85291
10.72	9.69144
10.94	17.7665
11.16	18.9341
11.38	1.68648
11.6	0.821747
11.82	13.5253
12.04	15.9344
12.26	24.1945
12.48	34.2207
12.7	26.5998
12.92	18.9626
13.14	20.574
13.36	29.2157
13.58	30.0409
13.8	20.7133
14.02	8.67913
14.24	12.7261
14.46	21.7279
14.68	1.86671
14.9	9.79122
15.12	19.7977
15.34	19.8117
15.56	3.97738
15.78	36.9065
16	15.515
16.22	26.5582
16.44	10.3966
16.66	34.3802
16.88	11.7031
17.1	27.7006
17.32	2.78074
17.54	14.133
17.76	21.0988
17.98	21.9068
18.2	28.8701
18.42	5.39683
18.64	12.9444
18.86	1.71808
19.08	6.61588
19.3	3.85749
19.52	28.4558
19.74	12.5319
19.96	9.68938
20.18	48.0392
20.4	9.09777
20.62	11.4256
20.84	15.1976
21.06	6.0353
21.28	6.8159
21.5	31.823
21.72	8.29956
21.94	322.663
22.16	8.86188
22.38	14.875
22.6	14.54
22.82	15.7555
23.04	3.1577
23.26	14.9299
23.48	4.76082
23.7	15.2809
23.92	13.1856
24.14	16.5192
24.36	18.5078
24.58	9.22745
24.8	7.47955
25.02	0.501785
25.24	13.0859
25.46	11.2305
25.68	33.4687
25.9	9.79886
26.12	14.4826
26.34	23.738
26.56	7.95769
26.78	10.9636
27	21.2741
27.22	5.74893
27.44	9.73385
27.66	12.2902
27.88	7.12774
28.1	6.15648
28.32	46.0277
28.54	249.397
28.76	11.4241
28.98	4.4117
29.2	12.9435
29.42	13.4124
29.64	26.8918
29.86	212.266
30.08	14.5094
30.3	8.50978
30.52	17.3873
30.74	17.9795
30.96	30.3622
31.18	8.27512
31.4	14.9848
31.62	3.52035
31.84	38.7445
32.06	11.609
32.28	5.9948
32.5	71.7001
32.72	17.4694
32.94	15.1313
33.16	7.99331
33.38	32.0805
33.6	9.81535
33.82	125.778
34.04	32.9082
34.26	1.41801
34.48	5.13074
34.7	7.12668
34.92	17.7547
35.14	9.29278
35.36	21.111
35.58	11.2194
35.8	0.83205
36.02	1.0105
36.24	19.0058
36.46	18.9646
36.68	18.193
36.9	9.18019
37.12	6.81642
37.34	81.9563
37.56	13.6181
37.78	25.978
38	5.75581
38.22	9.85622
38.44	24.4095
38.66	3.62229
38.88	1.9851
39.1	0.875835
39.32	18.1245
39.54	27.6395
39.76	14.699
39.98	4.12077
40.2	3.11409
40.42	8.34072
40.64	27.2442
40.86	5.20152
41.08	19.999
41.3	19.5164
41.52	9.77841
41.74	18.3543
41.96	15.5517
42.18	8.53038
42.4	13.9361
42.62	11.5014
42.84	30.7914
43.06	8.39935
43.28	2.67116
43.5	3.6934
43.72	16.8616
43.94	2.03998
44.16	14.6724
44.38	8.0943
44.6	13.3842
44.82	25.6977
45.04	0.459545
45.26	11.226
45.48	8.55007
45.7	11.906
45.92	5.33964
46.14	12.4307
46.36	1.91918
46.58	20.2798
46.8	55.7181
47.02	16.5535
47.24	2.9551
47.46	2.98888
47.68	17.4167
47.9	14.6045
48.12	12.7174
48.34	11.8276
48.56	9.87232
48.78	2.85251
49	2.27996
49.22	18.8287
49.44	63.6838
49.66	14.3211
49.88	5.75143
50.1	14.7523
50.32	5.89185
50.54	1.23401
50.76	14.7242
50.98	6.02866
51.2	9.7273
51.42	15.5866
51.64	6.6307
51.86	1.09699
52.08	5.51865
52.3	13.5719
52.52	1.0218
52.74	16.1986
52.96	20.2468
53.18	12.1291
53.4	9.82302
53.62	10.3562
53.84	21.5185
54.06	18.3831
54.28	14.7589
54.5	15.0496
54.72	14.8161
54.94	4.6983
55.16	1.83904
55.38	7.73112
55.6	9.01967
55.82	3.50509
56.04	4.17324
56.26	2.22241
56.48	10.4416
56.7	12.4559
56.92	0.193268
57.14	23.9225
57.36	81.2107
57.58	1.22552
57.8	3.56815
58.02	0.590347
58.24	1.80067
58.46	0.941792
58.68	8.13144
58.9	7.18749
59.12	7.08844
59.34	8.05279
59.56	13.1154
59.78	23.5948
60	13.8451
60.22	4.91124
60.44	25.2544
60.66	6.26831
60.88	10.4309
61.1	5.4824
61.32	14.5604
61.54	2.84325
61.76	12.8669
61.98	10.9848
62.2	3.85888
62.42	7.24498
62.64	5.21211
62.86	11.4125
63.08	5.39459
63.3	3.68982
63.52	12.7627
63.74	14.5717
63.96	3.47994
64.18	8.52783
64.4	4.8056
64.62	8.29013
64.84	8.43973
65.06	2.49603
65.28	7.41805
65.5	4.71227
65.72	1.89444
65.94	3.1783
66.16	7.45638
66.38	10.6461
66.6	9.81409
66.82	1.91831
67.04	7.21599
67.26	4.38878
67.48	5.50917
67.7	7.29784
67.92	13.4946
68.14	12.1568
68.36	8.00451
68.58	1.08813
68.8	7.87262
69.02	10.1431
69.24	5.09328
69.46	14.03
69.68	9.90076
69.9	11.8401
70.12	4.7897
70.34	4.45795
70.56	3.07252
70.78	3.90165
71	0.026031
71.22	1.05404
71.44	10.2394
71.66	4.08507
71.88	7.68131
72.1	2.6739
72.32	7.81756
72.54	8.97883
72.76	11.9733
72.98	2.21347
73.2	21.3772
73.42	20.5911
73.64	10.5938
73.86	7.14791
74.08	2.8218
74.3	2.71806
74.52	1.79401
74.74	7.24091
74.96	16.3026
75.18	9.3909
75.4	17.4363
75.62	10.4275
75.84	7.47812
76.06	5.53134
76.28	7.79871
76.5	1.06464
76.72	7.10599
76.94	6.28712
77.16	2.21746
77.38	8.11819
77.6	4.00891
77.82	7.78341
78.04	5.07317
78.26	8.1154
78.48	4.2319
78.7	8.10612
78.92	4.92327
79.14	24.2034
79.36	2.06789
79.58	6.18585
79.8	1.15149
80.02	1.28399
80.24	5.20236
80.46	6.89685
80.68	1.34877
80.9	10.5894
81.12	10.6684
81.34	5.91044
81.56	1.21453
81.78	8.80017
82	0.663697
82.22	4.0806
82.44	8.00745
82.66	2.05146
82.88	15.1205
83.1	4.06164
83.32	2.96077
83.54	9.6312
83.76	8.54314
83.98	6.38948
84.2	7.79631
84.42	5.97321
84.64	5.69533
84.86	5.72602
85.08	1.80819
85.3	8.79827
85.52	5.85709
85.74	2.93951
85.96	9.27852
86.18	8.30686
86.4	8.35126
86.62	12.3266
86.84	16.229
87.06	0.758169
87.28	7.26415
87.5	11.2402
87.72	3.33447
87.94	3.71636
88.16	4.8255
88.38	2.6853
88.6	5.81228
88.82	9.9485
89.04	1.12931
89.26	5.74834
89.48	3.8744
89.7	2.55218
89.92	2.11248
