Measurement: Powder, Xray Data XY Processed
Mineral: Langbanite
Rruff sample: R050664
Ideal chemistry: Mn^2+^_4_Mn^3+^_9_Sb^5+^O_16_(SiO_4_)_2_
Locality: Langban, Filipstad, Varmland, Sweden
Source: University of Arizona Mineral Museum
Description: Black metallic crystals
Diffraction sample description: Powder
Measured chemistry: (Mn^2+^_3.79_Ca_0.21_)_Σ=4_(Mn^3+^_6.45_Fe^3+^_2.55_)_Σ=9_Sb^5+^_1.00_O_16_(Si_1.00_O_4_)_2_
Cell parameters: a: 11.5523(7) b: 11.5523(7) c: 11.1411(8) alpha: 90. beta: 90. gamma: 120. volume: 1287.6(1) crystal system: hexagonal
x	intensity
5	0
5.22	14.527
5.44	14.108
5.66	22.188
5.88	8.933
6.1	22.55
6.32	29.038
6.54	17.458
6.76	28.628
6.98	6.301
7.2	5.626
7.42	16.087
7.64	0.927
7.86	10.348
8.08	17.893
8.3	18.493
8.52	1.099
8.74	11.28
8.96	7.694
9.18	22.858
9.4	11.093
9.62	13.046
9.84	11.502
10.06	10.293
10.28	6.842
10.5	30.911
10.72	25.783
10.94	23.188
11.16	2.781
11.38	26.561
11.6	11.413
11.82	11.635
12.04	15.823
12.26	15.489
12.48	17.963
12.7	6.654
12.92	1.352
13.14	15.834
13.36	20.885
13.58	7.992
13.8	7.223
14.02	16.713
14.24	23.258
14.46	20.893
14.68	15.999
14.9	7.57
15.12	9.641
15.34	31.357
15.56	22.16
15.78	4.339
16	27.03
16.22	7.704
16.44	10.875
16.66	10.985
16.88	10.9
17.1	24.969
17.32	29.136
17.54	14.177
17.76	16.074
17.98	21.298
18.2	4.291
18.42	8.646
18.64	10.138
18.86	10.873
19.08	10.558
19.3	6.52
19.52	15.651
19.74	19.425
19.96	30.421
20.18	32.866
20.4	22.347
20.62	22.702
20.84	8.189
21.06	8.379
21.28	3.878
21.5	19.938
21.72	3.202
21.94	21.787
22.16	27.528
22.38	12.229
22.6	40.56
22.82	21.477
23.04	14.327
23.26	13.237
23.48	20.148
23.7	13.387
23.92	26.654
24.14	16.331
24.36	15.841
24.58	1.67
24.8	11.08
25.02	7.632
25.24	9.875
25.46	2.641
25.68	2.557
25.9	11.836
26.12	7.74
26.34	11.052
26.56	18.571
26.78	8.152
27	3.811
27.22	19.727
27.44	12.414
27.66	1.764
27.88	29.785
28.1	10.189
28.32	13.15
28.54	49.993
28.76	12.682
28.98	9.335
29.2	4.349
29.42	11.881
29.64	7.65
29.86	14.358
30.08	5.089
30.3	8.558
30.52	8.068
30.74	13.138
30.96	31.716
31.18	16.479
31.4	26.257
31.62	5.325
31.84	17.588
32.06	219.088
32.28	50.823
32.5	5.474
32.72	1.871
32.94	19.275
33.16	14.257
33.38	1.977
33.6	13.489
33.82	23.946
34.04	13.054
34.26	4.741
34.48	12.205
34.7	14.279
34.92	83.107
35.14	25.623
35.36	12.753
35.58	2.775
35.8	34.701
36.02	2.206
36.24	12.7
36.46	16.21
36.68	17.488
36.9	0.364
37.12	22.426
37.34	7.46
37.56	22.724
37.78	12.173
38	18.706
38.22	3.026
38.44	13.745
38.66	15.489
38.88	12.584
39.1	19.248
39.32	12.503
39.54	16.783
39.76	7.399
39.98	2.504
40.2	20.032
40.42	41.069
40.64	12.649
40.86	17.199
41.08	13.479
41.3	27.33
41.52	23.925
41.74	19.045
41.96	3.663
42.18	14.836
42.4	5.072
42.62	16.73
42.84	5.451
43.06	12.425
43.28	6.247
43.5	23.973
43.72	4.18
43.94	22.98
44.16	13.22
44.38	7.15
44.6	16.423
44.82	4.815
45.04	24.954
45.26	17.416
45.48	8.562
45.7	7.39
45.92	24.532
46.14	17.199
46.36	16.444
46.58	28.652
46.8	7.557
47.02	26.41
47.24	5.351
47.46	31.353
47.68	15.328
47.9	0.669
48.12	3.861
48.34	2.637
48.56	6.442
48.78	16.057
49	2.351
49.22	11.475
49.44	22.178
49.66	17.199
49.88	11.808
50.1	8.07
50.32	13.575
50.54	9.644
50.76	12.892
50.98	11.013
51.2	0.2
51.42	12.29
51.64	11.689
51.86	20.938
52.08	17.717
52.3	19.601
52.52	10.765
52.74	12.732
52.96	2.309
53.18	20.201
53.4	20.06
53.62	4.594
53.84	10.081
54.06	3.019
54.28	11.961
54.5	1.186
54.72	15.912
54.94	39.849
55.16	34.084
55.38	23.198
55.6	4.827
55.82	22.561
56.04	8.967
56.26	12.998
56.48	12.3
56.7	26.378
56.92	3.83
57.14	0.881
57.36	1.017
57.58	1.325
57.8	13.785
58.02	27.339
58.24	15.764
58.46	6.913
58.68	10.138
58.9	26.712
59.12	65.783
59.34	34.235
59.56	9.244
59.78	22.855
60	24.373
60.22	8.776
60.44	17.336
60.66	33.487
60.88	5.435
61.1	10.71
61.32	11.819
61.54	14.086
61.76	5.177
61.98	11.074
62.2	18.298
62.42	13.588
62.64	13.624
62.86	13.551
63.08	0.38
63.3	8.383
63.52	8.708
63.74	12.967
63.96	12.745
64.18	9.224
64.4	10.711
64.62	8.209
64.84	14.636
65.06	42.532
65.28	11.767
65.5	1.708
65.72	3.555
65.94	0.963
66.16	7.119
66.38	0.027
66.6	11.589
66.82	24.629
67.04	11.353
67.26	15.026
67.48	1.973
67.7	4.184
67.92	7.69
68.14	7.532
68.36	28.002
68.58	12.004
68.8	22.754
69.02	11.627
69.24	3.82
69.46	8.33
69.68	11.459
69.9	10.849
70.12	9.886
70.34	6.863
70.56	17.79
70.78	10.089
71	15.441
71.22	7.597
71.44	5.601
71.66	7.178
71.88	14.357
72.1	12.232
72.32	6.88
72.54	7.842
72.76	11.072
72.98	9.091
73.2	0.52
73.42	16.044
73.64	12.052
73.86	17.105
74.08	11.114
74.3	17.258
74.52	12.14
74.74	6.559
74.96	0.545
75.18	17.519
75.4	10.406
75.62	26.229
75.84	8.984
76.06	12.837
76.28	6.996
76.5	12.098
76.72	7.772
76.94	7.275
77.16	10.763
77.38	7.859
77.6	18.877
77.82	19.473
78.04	3.168
78.26	10.634
78.48	8.451
78.7	5.974
78.92	17.358
79.14	11.652
79.36	8.048
79.58	0.229
79.8	8.913
80.02	4.829
80.24	17.364
80.46	11.461
80.68	11.554
80.9	6.533
81.12	8.034
81.34	8.972
81.56	13.507
81.78	10.778
82	14.058
82.22	3.765
82.44	6.901
82.66	13.85
82.88	1.677
83.1	5.466
83.32	18.281
83.54	11.485
83.76	15.156
83.98	8.35
84.2	12.624
84.42	5.286
84.64	2.283
84.86	11.594
85.08	9.299
85.3	14.599
85.52	0.004
85.74	3.988
85.96	15.175
86.18	17.305
86.4	13.684
86.62	8.93
86.84	11.408
87.06	13.406
87.28	7.724
87.5	9.552
87.72	13.668
87.94	20.463
88.16	22.311
88.38	8.459
88.6	4.64
88.82	20.172
89.04	9.051
89.26	15.075
89.48	14.172
89.7	9.141
89.92	2.609
