Measurement: Powder, Xray Data XY Processed
Mineral: Lanthanite-(Nd)
Rruff sample: R060467
Ideal chemistry: Nd_2_(CO_3_)_3_8H_2_O
Locality: Curitiba, Parana, Brazil
Source: Michael Scott
Description: Pink tabular crystals
Diffraction sample description: Single crystal, powder profile is calculated
Measured chemistry: (Nd_0.85_La_0.78_Pr_0.22_Sm_0.09_)_Σ=1.94_(CO_3_)_3.04_·8H_2_O
Cell parameters: a: 9.492(2) b: 16.940(2) c: 8.940(2) alpha: 90 beta: 90 gamma: 90 volume: 1437.4(3) crystal system: orthorhombic
x	intensity
5	0
5.22	0
5.44	0
5.66	0
5.88	0
6.1	0
6.32	0
6.54	0
6.76	0
6.98	0
7.2	0
7.42	0
7.64	0
7.86	0
8.08	0
8.3	0
8.52	0
8.74	0
8.96	0
9.18	0
9.4	0
9.62	0
9.84	0
10.06	0
10.28	0
10.5	17.434
10.72	0
10.94	0
11.16	0
11.38	0
11.6	0
11.82	0
12.04	0
12.26	0
12.48	0
12.7	0
12.92	0
13.14	0
13.36	0
13.58	0.114
13.8	0
14.02	0.777
14.24	0
14.46	0.22
14.68	0
14.9	0
15.12	0
15.34	0
15.56	0
15.78	0
16	0
16.22	0
16.44	0
16.66	0
16.88	0
17.1	0.005
17.32	0
17.54	0
17.76	0
17.98	0
18.2	0
18.42	0
18.64	5.432
18.86	0
19.08	0
19.3	0
19.52	0
19.74	0.014
19.96	0.488
20.18	0
20.4	0
20.62	0
20.84	0.021
21.06	0.923
21.28	0
21.5	6.542
21.72	0
21.94	0
22.16	0
22.38	0.068
22.6	0.63
22.82	0
23.04	1.148
23.26	2.051
23.48	0
23.7	0.342
23.92	0
24.14	0
24.36	0.406
24.58	0
24.8	0
25.02	0.263
25.24	0
25.46	0
25.68	0
25.9	0
26.12	0
26.34	0
26.56	0.004
26.78	0
27	0.001
27.22	0.016
27.44	8.7
27.66	0
27.88	0.61
28.1	0.002
28.32	0.993
28.54	0
28.76	0
28.98	1.118
29.2	0.003
29.42	10.422
29.64	0.412
29.86	0.079
30.08	0.264
30.3	0.001
30.52	1.54
30.74	0
30.96	0
31.18	0
31.4	0.12
31.62	0.723
31.84	0.375
32.06	0.001
32.28	0
32.5	0
32.72	0
32.94	0
33.16	1.103
33.38	0.456
33.6	0
33.82	0
34.04	0.489
34.26	0
34.48	0.03
34.7	4.616
34.92	0.054
35.14	0.331
35.36	0.999
35.58	0.002
35.8	0
36.02	0
36.24	0.001
36.46	0.051
36.68	0
36.9	0.695
37.12	1.197
37.34	0
37.56	0.02
37.78	0.418
38	0.338
38.22	0.036
38.44	0.539
38.66	0
38.88	1.149
39.1	0.047
39.32	0.156
39.54	1.015
39.76	0.128
39.98	0
40.2	0.078
40.42	0.797
40.64	0.021
40.86	1.018
41.08	0.043
41.3	0
41.52	0.061
41.74	4.358
41.96	0.467
42.18	0
42.4	1.205
42.62	0.417
42.84	0.36
43.06	0.73
43.28	0.929
43.5	0.021
43.72	2.104
43.94	0.957
44.16	1.625
44.38	0.016
44.6	2.879
44.82	1.618
45.04	1.321
45.26	0.593
45.48	0
45.7	0
45.92	1.084
46.14	2.662
46.36	0.002
46.58	0
46.8	0.003
47.02	0.953
47.24	0.005
47.46	0.468
47.68	1.204
47.9	0.033
48.12	0.802
48.34	1.25
48.56	2.358
48.78	0
49	0
49.22	0.008
49.44	0.029
49.66	0
49.88	0.555
50.1	1.143
50.32	0.51
50.54	0.037
50.76	0
50.98	0
51.2	0.083
51.42	1.021
51.64	0.125
51.86	0.081
52.08	0.198
52.3	0.489
52.52	0.001
52.74	0.06
52.96	0.547
53.18	0.375
53.4	0.017
53.62	0.032
53.84	0.133
54.06	0.219
54.28	0
54.5	1.27
54.72	0.328
54.94	0.09
55.16	0.249
55.38	0.003
55.6	0
55.82	0.214
56.04	1.233
56.26	0.401
56.48	0.79
56.7	1.045
56.92	0.226
57.14	0.179
57.36	0.003
57.58	0.159
57.8	0.57
58.02	0.003
58.24	0.237
58.46	0.148
58.68	0.124
58.9	0.161
59.12	0.24
59.34	1.049
59.56	0.805
59.78	0.03
60	0.039
60.22	0.03
60.44	0.042
60.66	0
60.88	0.136
61.1	0.796
61.32	0.207
61.54	0.042
61.76	0.03
61.98	0.008
62.2	0.922
62.42	0.585
62.64	0.976
62.86	0.161
63.08	0.891
63.3	1.108
63.52	0.364
63.74	0.236
63.96	0.448
64.18	0.063
64.4	0.017
64.62	0.023
64.84	0.054
65.06	0
65.28	0.001
65.5	0.016
65.72	0.059
65.94	0.095
66.16	0.051
66.38	0.875
66.6	0.916
66.82	0.458
67.04	0.175
67.26	0.19
67.48	0.1
67.7	0.306
67.92	0.807
68.14	0.168
68.36	0.002
68.58	0.019
68.8	0.367
69.02	0.203
69.24	0.01
69.46	0.217
69.68	0.632
69.9	0.443
70.12	0.002
70.34	0.221
70.56	0.214
70.78	0.059
71	0.107
71.22	0.058
71.44	0.268
71.66	0.201
71.88	0.157
72.1	0.072
72.32	0.179
72.54	0.1
72.76	0.09
72.98	0.065
73.2	0.345
73.42	0.332
73.64	0.107
73.86	0.051
74.08	0.02
74.3	0.793
74.52	0.355
74.74	0.241
74.96	0.131
75.18	0.227
75.4	0.11
75.62	0.007
75.84	0.114
76.06	0.132
76.28	0.296
76.5	0.201
76.72	0.188
76.94	0.15
77.16	0.406
77.38	0.281
77.6	0.096
77.82	0.029
78.04	0.018
78.26	0.105
78.48	0.067
78.7	0.025
78.92	0.019
79.14	0.49
79.36	0.234
79.58	0.002
79.8	0.01
80.02	0.008
80.24	0.067
80.46	0.013
80.68	0.49
80.9	0.239
81.12	0.246
81.34	0.126
81.56	0.159
81.78	0.052
82	0.402
82.22	0.254
82.44	0.021
82.66	0.18
82.88	0.314
83.1	0.073
83.32	0.026
83.54	0.052
83.76	0.015
83.98	0.109
84.2	0.136
84.42	0.51
84.64	0.19
84.86	0.127
85.08	0.128
85.3	0.316
85.52	0.082
85.74	0.11
85.96	0.32
86.18	0.095
86.4	0.002
86.62	0.064
86.84	0.346
87.06	0.326
87.28	0.066
87.5	0.258
87.72	0.041
87.94	0.052
88.16	0.244
88.38	0.12
88.6	0.087
88.82	0.347
89.04	0.065
89.26	0.008
89.48	0.077
89.7	0.178
89.92	0.048
