Measurement: Powder, Xray Data XY Processed
Mineral: Larisaite
Rruff sample: R060879
Ideal chemistry: Na(H_3_O)(U^6+^O_2_)_3_(Se^4+^O_3_)_2_O_2_4H_2_O
Locality: Repete mine, San Juan County, Utah, USA
Source: Michael Scott
Description: Flattened aggregate of greenish yellow platy crystals
Diffraction sample description: Powder, using Mo radiation
Cell parameters: a: 6.970(5) b: 7.68(2) c: 17.26(1) alpha: 90 beta: 90 gamma: 85.8(2) volume: 920(2) crystal system: monoclinic
x	intensity
5.41	0
5.53	8.70085
5.65	19.4276
5.77	150.416
5.89	193.364
6.01	76.8227
6.13	170.505
6.25	177.973
6.37	127.034
6.49	137.437
6.61	161.349
6.73	159.99
6.85	149.793
6.97	160.404
7.09	180.103
7.21	184.712
7.33	242.878
7.45	256.601
7.57	287.301
7.69	284.134
7.81	229.338
7.93	187.471
8.05	140.339
8.17	132.632
8.29	140.03
8.41	124.447
8.53	122.897
8.65	102.236
8.77	120.408
8.89	122.99
9.01	189.355
9.13	283.323
9.25	309.885
9.37	219.455
9.49	138.486
9.61	62.6478
9.73	38.1477
9.85	26.2589
9.97	6.5599
10.09	0.568222
10.21	30.8595
10.33	9.86723
10.45	9.94344
10.57	21.5412
10.69	65.1711
10.81	143.307
10.93	218.691
11.05	217.111
11.17	118.708
11.29	59.5804
11.41	44.0286
11.53	181.254
11.65	470.015
11.77	727.32
11.89	710.972
12.01	558.345
12.13	362.769
12.25	306.664
12.37	265.421
12.49	239.339
12.61	264.031
12.73	289.287
12.85	345.013
12.97	749.629
13.09	1468.47
13.21	1817.69
13.33	1526.94
13.45	857.733
13.57	397.264
13.69	242.864
13.81	218.71
13.93	207.895
14.05	232.802
14.17	298.987
14.29	508.779
14.41	708.881
14.53	744.582
14.65	521.282
14.77	235.455
14.89	84.2835
15.01	63.9215
15.13	32.007
15.25	4.21652
15.37	13.37
15.49	3.26206
15.61	6.23001
15.73	9.19211
15.85	20.6296
15.97	20.2686
16.09	10.4468
16.21	10.9965
16.33	66.8133
16.45	113.225
16.57	83.8007
16.69	79.5956
16.81	82.9777
16.93	81.014
17.05	60.6606
17.17	4.0198
17.29	4.07751
17.41	2.57781
17.53	28.8594
17.65	48.6479
17.77	77.4145
17.89	95.9052
18.01	88.4934
18.13	82.8536
18.25	61.2816
18.37	32.5962
18.49	23.3679
18.61	20.9755
18.73	63.8451
18.85	124.146
18.97	169
19.09	164.561
19.21	121.655
19.33	115.665
19.45	96.9062
19.57	70.0534
19.69	63.7343
19.81	68.6384
19.93	84.3188
20.05	73.6667
20.17	28.9412
20.29	1.82523
20.41	1.61945
20.53	0.628306
20.65	4.51026
20.77	26.9402
20.89	71.8397
21.01	167.932
21.13	292.185
21.25	413.784
21.37	429.096
21.49	345.494
21.61	250.858
21.73	183.828
21.85	163.407
21.97	255.659
22.09	347.849
22.21	376.339
22.33	278.45
22.45	180.81
22.57	96.3703
22.69	46.7821
22.81	18.355
22.93	36.1708
23.05	63.529
23.17	95.8094
23.29	124.832
23.41	172.37
23.53	240.281
23.65	292.084
23.77	244.844
23.89	165.357
24.01	100.88
24.13	116.459
24.25	185.411
24.37	267.967
24.49	272.596
24.61	199.771
24.73	89.8821
24.85	24.0112
24.97	1.57914
25.09	16.0078
25.21	17.8802
25.33	3.90835
25.45	1.13745
25.57	5.40097
25.69	6.44026
25.81	1.46056
25.93	0.229386
26.05	4.36338
26.17	44.0973
26.29	89.975
26.41	185.455
26.53	271.181
26.65	259.317
26.77	241.336
26.89	219.066
27.01	246.323
27.13	243.817
27.25	210.687
27.37	135.644
27.49	82.1661
27.61	19.2581
27.73	1.87677
27.85	10.3408
27.97	17.555
28.09	6.68392
28.21	3.2147
28.33	2.96827
28.45	18.11
28.57	13.4048
28.69	24.9002
28.81	24.91
28.93	15.7674
29.05	41.6773
29.17	20.6962
29.29	14.0404
29.41	8.13969
29.53	0.254012
29.65	9.89326
29.77	0.824903
29.89	1.27818
30.01	11.1272
30.13	8.48611
30.25	0.962837
30.37	30.5276
30.49	32.9303
30.61	8.99116
30.73	9.09067
30.85	3.08236
30.97	9.91544
31.09	7.79149
31.21	26.2861
31.33	34.8245
31.45	45.159
31.57	51.2898
31.69	45.4699
31.81	63.5586
31.93	77.1256
32.05	105.124
32.17	105.425
32.29	95.1415
32.41	102.762
32.53	97.9803
32.65	76.2935
32.77	71.9929
32.89	48.7689
33.01	34.7037
33.13	31.5374
33.25	28.7628
33.37	34.3739
33.49	46.739
33.61	81.1451
33.73	74.0606
33.85	92.0203
33.97	92.5792
34.09	109.9
34.21	133.864
34.33	127.663
34.45	108.387
34.57	52.8472
34.69	25.0166
34.81	14.1497
34.93	0.287385
35.05	0.884337
35.17	7.13967
35.29	2.63216
35.41	7.27288
35.53	15.9537
35.65	28.447
35.77	46.1488
35.89	71.9808
36.01	89.7314
36.13	108.048
36.25	117.657
36.37	120.602
36.49	104.816
36.61	96.4885
36.73	69.0682
36.85	62.8846
36.97	52.7228
37.09	61.2139
37.21	31.9665
37.33	26.606
37.45	1.75253
37.57	20.5253
37.69	35.9849
37.81	54.1279
37.93	47.6718
38.05	54.2059
38.17	28.6784
38.29	44.4391
38.41	37.0695
38.53	37.1427
38.65	34.9693
38.77	29.6776
38.89	19.1103
39.01	1.1393
39.13	3.25909
39.25	4.66195
39.37	3.99044
39.49	14.4229
39.61	4.433
39.73	1.2397
39.85	12.2346
39.97	5.97532
40.09	34.9812
40.21	28.8051
40.33	48.8006
40.45	49.5971
40.57	47.0834
40.69	40.9686
40.81	18.1934
40.93	15.4617
41.05	7.53058
41.17	13.2126
41.29	22.325
41.41	0.851989
41.53	0.693612
41.65	9.24251
41.77	6.3001
41.89	12.0473
42.01	3.38579
42.13	16.5592
42.25	27.6339
42.37	23.1107
42.49	17.4895
42.61	18.195
42.73	2.29946
42.85	5.31281
42.97	0.423272
43.09	13.3141
43.21	15.0287
43.33	28.6239
43.45	38.6275
43.57	48.1666
43.69	55.4251
43.81	51.9115
43.93	50.8314
44.05	46.5931
44.17	43.8045
44.29	39.9603
44.41	26.6945
44.53	34.5743
44.65	15.4437
44.77	30.1634
44.89	12.5432
45.01	21.1455
45.13	20.44
45.25	24.9823
45.37	26.756
45.49	29.088
45.61	13.64
45.73	1.16647
45.85	10.1625
45.97	14.5601
46.09	23.2266
46.21	11.6732
46.33	8.22088
46.45	11.4222
46.57	3.43872
46.69	13.5119
46.81	2.60728
46.93	1.53147
47.05	11.3387
47.17	0.121658
47.29	14.7129
47.41	21.1544
47.53	17.4866
47.65	9.19332
47.77	9.90822
47.89	4.58182
48.01	1.48546
48.13	0.215214
48.25	1.81069
48.37	14.1889
48.49	24.2934
48.61	26.3108
48.73	51.0454
48.85	32.1454
48.97	31.4182
49.09	31.3388
49.21	13.7556
49.33	3.66995
49.45	14.1942
49.57	3.92322
49.69	15.8263
49.81	21.5424
49.93	11.4618
50.05	8.45227
50.17	2.39257
50.29	5.24866
