Measurement: Powder, Xray Data XY Processed
Mineral: Laueite
Rruff sample: R060013
Ideal chemistry: Mn^2+^Fe^3+^_2_(PO_4_)_2_(OH)_2_8H_2_O
Locality: Hagendorf, Germany
Source: University of Arizona Mineral Museum
Description: Orange prismatic crystals associated with what appears to be accicular ferristrunzite
Diffraction sample description: Single crystal, powder profile is calculated
Measured chemistry: (Mn^2+^_0.54_Fe^2+^_0.35_Mg_0.11_)_Σ=1_Fe^3+^_2.00_(P_1.00_O_4_)_2_(OH)_2_·8H_2_O
Cell parameters: a: 5.342(11) b: 10.65(2) c: 7.209(9) alpha: 107.96(6) beta: 111.54(5) gamma: 71.74(7) volume: 353.4(10) crystal system: triclinic
x	intensity
5	0
5.22	0
5.44	0
5.66	0
5.88	0
6.1	0
6.32	0
6.54	0
6.76	0
6.98	0
7.2	0
7.42	0
7.64	0
7.86	0
8.08	0
8.3	0
8.52	0
8.74	0
8.96	100
9.18	0
9.4	0
9.62	0
9.84	0
10.06	0
10.28	0
10.5	0
10.72	0
10.94	0
11.16	0
11.38	0
11.6	0
11.82	0
12.04	0
12.26	0
12.48	0
12.7	0
12.92	0
13.14	0
13.36	0
13.58	14.359
13.8	0
14.02	0
14.24	0
14.46	1.486
14.68	0
14.9	0
15.12	0
15.34	0
15.56	0
15.78	0
16	0
16.22	0
16.44	0
16.66	0
16.88	0
17.1	0
17.32	0
17.54	0
17.76	0.01
17.98	34.4
18.2	0.005
18.42	1.002
18.64	0
18.86	0
19.08	0
19.3	0.224
19.52	0
19.74	0
19.96	0.018
20.18	0
20.4	0
20.62	0
20.84	0.002
21.06	0.16
21.28	0
21.5	0
21.72	0
21.94	0
22.16	5.312
22.38	0
22.6	12.831
22.82	0
23.04	0
23.26	0
23.48	0
23.7	0
23.92	0
24.14	4.344
24.36	0
24.58	0
24.8	0.237
25.02	0
25.24	0
25.46	0
25.68	0
25.9	0.308
26.12	0.806
26.34	0
26.56	0
26.78	0.05
27	0.01
27.22	35.14
27.44	0.055
27.66	0.459
27.88	0.066
28.1	0.011
28.32	0
28.54	5.595
28.76	0.015
28.98	0
29.2	2.727
29.42	0
29.64	0
29.86	0
30.08	0
30.3	0
30.52	0.147
30.74	0.04
30.96	0.3
31.18	4.076
31.4	0
31.62	0
31.84	0
32.06	0
32.28	0
32.5	1.517
32.72	0
32.94	0.078
33.16	0.193
33.38	0
33.6	0.158
33.82	0
34.04	0.007
34.26	6.638
34.48	0.012
34.7	0
34.92	0
35.14	0
35.36	0.022
35.58	0.77
35.8	0
36.02	1.041
36.24	0.753
36.46	3.072
36.68	0.951
36.9	1.035
37.12	1.797
37.34	0.115
37.56	4.868
37.78	0
38	0.05
38.22	0.205
38.44	0.027
38.66	0.433
38.88	0.532
39.1	1.752
39.32	0
39.54	0.006
39.76	0
39.98	0.199
40.2	0.132
40.42	0.053
40.64	0.523
40.86	0.012
41.08	1.042
41.3	0.215
41.52	1.683
41.74	0.004
41.96	0.071
42.18	0.711
42.4	0
42.62	1.497
42.84	0.496
43.06	0.079
43.28	0.125
43.5	1.545
43.72	0.015
43.94	0.371
44.16	0.414
44.38	0.178
44.6	0.747
44.82	4.904
45.04	0.016
45.26	2.42
45.48	0.753
45.7	0.477
45.92	0.166
46.14	0.709
46.36	0.604
46.58	0
46.8	0
47.02	0.101
47.24	0
47.46	0
47.68	0.032
47.9	0.106
48.12	0.477
48.34	0.645
48.56	0.068
48.78	0.104
49	0.044
49.22	0.384
49.44	2.575
49.66	1.139
49.88	0.007
50.1	0
50.32	0.137
50.54	0
50.76	1.672
50.98	0.104
51.2	0.265
51.42	0.004
51.64	0.232
51.86	0.669
52.08	0.07
52.3	0.111
52.52	0.716
52.74	0.456
52.96	0.051
53.18	0.238
53.4	0.325
53.62	0.536
53.84	0.015
54.06	0.116
54.28	0.443
54.5	0.112
54.72	1.751
54.94	1.336
55.16	1.053
55.38	2.138
55.6	0.383
55.82	2.109
56.04	2.377
56.26	0.524
56.48	0.004
56.7	0.037
56.92	0.171
57.14	1.113
57.36	0.223
57.58	0.544
57.8	2.475
58.02	0.133
58.24	0.008
58.46	0.285
58.68	0.009
58.9	0
59.12	0.379
59.34	0.71
59.56	0.384
59.78	0.304
60	0.144
60.22	0.199
60.44	0.361
60.66	0.732
60.88	0.077
61.1	0.56
61.32	0.168
61.54	0.028
61.76	0.083
61.98	0.268
62.2	0.33
62.42	0.072
62.64	0.458
62.86	0.175
63.08	0.434
63.3	0.554
63.52	0.168
63.74	0.309
63.96	0.459
64.18	0.332
64.4	0.034
64.62	0.445
64.84	0.814
65.06	0.521
65.28	0.523
65.5	0.61
65.72	0.133
65.94	0.284
66.16	0.193
66.38	0.073
66.6	0.024
66.82	0.029
67.04	0.051
67.26	0.17
67.48	0.242
67.7	0.174
67.92	1.078
68.14	0.394
68.36	0.096
68.58	0.024
68.8	0.033
69.02	0.167
69.24	0.625
69.46	0.41
69.68	0.057
69.9	0.008
70.12	0.003
70.34	0.013
70.56	0.2
70.78	0.711
71	1.162
71.22	0.767
71.44	0.548
71.66	0.142
71.88	0.121
72.1	0.76
72.32	0.934
72.54	0.332
72.76	0.086
72.98	0.219
73.2	0.185
73.42	0.19
73.64	0.081
73.86	0.033
74.08	0.162
74.3	0.473
74.52	0.33
74.74	0.167
74.96	0.32
75.18	0.173
75.4	0.11
75.62	0.109
75.84	0.041
76.06	0.005
76.28	0.034
76.5	0.097
76.72	0.269
76.94	0.493
77.16	0.252
77.38	0.157
77.6	0.402
77.82	0.364
78.04	0.101
78.26	0.005
78.48	0.032
78.7	0.093
78.92	0.089
79.14	0.205
79.36	0.199
79.58	0.083
79.8	0.021
80.02	0.223
80.24	0.171
80.46	0.027
80.68	0.148
80.9	0.124
81.12	0.023
81.34	0.031
81.56	0.029
81.78	0.082
82	0.085
82.22	0.026
82.44	0.06
82.66	0.165
82.88	0.089
83.1	0.098
83.32	0.236
83.54	0.135
83.76	0.101
83.98	0.092
84.2	0.098
84.42	0.154
84.64	0.096
84.86	0.052
85.08	0.276
85.3	0.273
85.52	0.166
85.74	0.206
85.96	0.05
86.18	0.15
86.4	0.369
86.62	0.145
86.84	0.248
87.06	0.239
87.28	0.178
87.5	0.02
87.72	0.003
87.94	0.146
88.16	0.169
88.38	0.119
88.6	0.08
88.82	0.094
89.04	0.043
89.26	0.107
89.48	0.046
89.7	0.164
89.92	0.151
