Measurement: Powder, Xray Data XY Processed
Mineral: Lazulite
Rruff sample: R050269
Ideal chemistry: MgAl_2_(PO_4_)_2_(OH)_2_
Locality: Horsjoberg, Varmland, Sweden
Source: Marcus Origlieri
Description: Deep-blue indistinct crystals
Diffraction sample description: Powder
Measured chemistry: (Mg_0.69_Fe_0.25_Mn_0.01_)Al_2.00_(P_1.00_O_4_)_2_(OH)_2_
Cell parameters: a: 7.1489(5) b: 7.2841(6) c: 7.2349(6) alpha: 90 beta: 120.527(5) gamma: 90 volume: 324.53(3) crystal system: monoclinic
x	intensity
5	0
5.22	20.6773
5.44	7.89471
5.66	15.1725
5.88	18.7668
6.1	11.9328
6.32	25.6834
6.54	39.2334
6.76	14.3281
6.98	13.7343
7.2	7.60381
7.42	20.8838
7.64	23.7676
7.86	17.1263
8.08	3.49215
8.3	2.6977
8.52	13.0108
8.74	18.5907
8.96	10.6562
9.18	21.4423
9.4	12.4359
9.62	7.81908
9.84	0.882984
10.06	13.7052
10.28	9.13137
10.5	19.1891
10.72	6.61342
10.94	12.0074
11.16	22.1379
11.38	21.3071
11.6	7.66831
11.82	9.51642
12.04	13.5238
12.26	0.71587
12.48	14.6951
12.7	7.16928
12.92	17.7771
13.14	8.32919
13.36	14.3068
13.58	12.7772
13.8	8.44493
14.02	3.82419
14.24	0.064533
14.46	68.2543
14.68	9.5714
14.9	14.3412
15.12	14.5267
15.34	7.62968
15.56	20.565
15.78	4.64294
16	25.2019
16.22	8.46046
16.44	2.25269
16.66	7.17253
16.88	19.0009
17.1	6.03676
17.32	6.60481
17.54	11.0634
17.76	22.8634
17.98	7.08469
18.2	3.4317
18.42	5.47099
18.64	9.30815
18.86	56.1612
19.08	3.95194
19.3	10.9072
19.52	16.3161
19.74	9.30773
19.96	5.36009
20.18	15.7277
20.4	10.0465
20.62	4.61278
20.84	11.4095
21.06	1.00699
21.28	14.2128
21.5	11.9081
21.72	8.36918
21.94	8.46705
22.16	13.5489
22.38	8.89437
22.6	15.5875
22.82	16.6326
23.04	6.32261
23.26	10.7963
23.48	3.13742
23.7	12.6645
23.92	1.58386
24.14	17.7418
24.36	12.5159
24.58	26.9473
24.8	0.712246
25.02	9.77954
25.24	20.8385
25.46	0.211391
25.68	2.16181
25.9	13.2901
26.12	14.4759
26.34	1.11645
26.56	6.31519
26.78	41.4273
27	11.3328
27.22	17.5763
27.44	49.2848
27.66	168.756
27.88	660.352
28.1	18.0898
28.32	65.5583
28.54	42.5563
28.76	16.9899
28.98	261.211
29.2	20.6392
29.42	0.383694
29.64	1.49506
29.86	1.17115
30.08	6.90502
30.3	17.2379
30.52	16.5357
30.74	8.70843
30.96	13.0896
31.18	27.8268
31.4	11.4838
31.62	4.18602
31.84	17.4105
32.06	0.951111
32.28	22.9728
32.5	5.18617
32.72	12.3999
32.94	11.324
33.16	0.478176
33.38	16.3807
33.6	9.44721
33.82	18.3942
34.04	17.3151
34.26	0.686852
34.48	4.85996
34.7	0.660194
34.92	14.0757
35.14	51.2363
35.36	22.577
35.58	10.7192
35.8	10.8351
36.02	4.53184
36.24	7.76197
36.46	3.33018
36.68	19.5014
36.9	13.6448
37.12	11.7955
37.34	2.42057
37.56	4.19534
37.78	14.4926
38	13.4102
38.22	7.54759
38.44	20.2607
38.66	4.92253
38.88	19.3372
39.1	4.1535
39.32	1.75055
39.54	4.50697
39.76	15.2624
39.98	52.6738
40.2	7.84335
40.42	25.0079
40.64	71.2078
40.86	21.0601
41.08	5.30966
41.3	4.7365
41.52	1.94246
41.74	12.8725
41.96	19.3522
42.18	2.91313
42.4	15.818
42.62	8.1597
42.84	9.26685
43.06	4.13324
43.28	9.81078
43.5	0.757532
43.72	9.49279
43.94	23.9619
44.16	43.3672
44.38	6.75725
44.6	2.35917
44.82	20.7786
45.04	32.9977
45.26	55.3614
45.48	14.2816
45.7	130.071
45.92	119.699
46.14	10.1323
46.36	27.8949
46.58	4.73247
46.8	7.38586
47.02	0.502193
47.24	1.71227
47.46	8.54865
47.68	7.41058
47.9	3.68014
48.12	12.3144
48.34	8.05301
48.56	22.4219
48.78	5.45544
49	2.91394
49.22	5.53749
49.44	13.6469
49.66	0.447067
49.88	1.47918
50.1	44.0276
50.32	20.7268
50.54	69.7246
50.76	24.5301
50.98	11.1331
51.2	15.8753
51.42	2.78238
51.64	3.62616
51.86	0.234623
52.08	9.59487
52.3	26.3584
52.52	17.8098
52.74	27.2299
52.96	10.7668
53.18	5.58807
53.4	6.40848
53.62	28.2137
53.84	17.9774
54.06	0.717276
54.28	1.78855
54.5	19.8407
54.72	9.01883
54.94	14.1749
55.16	26.2438
55.38	10.5538
55.6	9.15946
55.82	4.09824
56.04	20.1726
56.26	2.33312
56.48	7.17442
56.7	2.81979
56.92	24.0303
57.14	5.86977
57.36	10.9265
57.58	67.7063
57.8	16.237
58.02	10.3768
58.24	5.3715
58.46	3.95705
58.68	118.461
58.9	118.124
59.12	27.0689
59.34	37.5969
59.56	5.36626
59.78	21.1656
60	9.34158
60.22	25.7719
60.44	4.09651
60.66	15.2882
60.88	3.47897
61.1	0.449261
61.32	2.31597
61.54	9.05267
61.76	14.2754
61.98	20.3899
62.2	0.137514
62.42	19.9642
62.64	1.13175
62.86	10.0232
63.08	17.1116
63.3	17.1101
63.52	10.8612
63.74	2.52484
63.96	9.58313
64.18	6.05628
64.4	0.513958
64.62	8.13868
64.84	22.4709
65.06	10.6646
65.28	9.87319
65.5	1.28892
65.72	5.60936
65.94	2.57173
66.16	46.0956
66.38	14.8522
66.6	15.6049
66.82	22.3947
67.04	18.8023
67.26	20.1352
67.48	12.3891
67.7	15.0991
67.92	4.53414
68.14	0.020678
68.36	3.46731
68.58	5.67719
68.8	7.87831
69.02	4.69034
69.24	17.6986
69.46	24.2375
69.68	11.1028
69.9	14.4069
70.12	17.0816
70.34	9.08615
70.56	6.34846
70.78	9.24841
71	0.830727
71.22	5.55012
71.44	19.2838
71.66	12.9103
71.88	13.3297
72.1	19.3981
72.32	5.25109
72.54	9.96836
72.76	7.00078
72.98	9.59236
73.2	13.0648
73.42	9.78499
73.64	2.05791
73.86	26.5512
74.08	18.6197
74.3	65.321
74.52	44.1348
74.74	12.386
74.96	6.14256
75.18	4.22401
75.4	15.5568
75.62	13.1009
75.84	12.7627
76.06	1.32927
76.28	15.8529
76.5	20.673
76.72	9.1874
76.94	4.08278
77.16	0.162777
77.38	17.6291
77.6	17.1755
77.82	5.23921
78.04	12.1017
78.26	11.9086
78.48	13.91
78.7	8.59349
78.92	14.6767
79.14	15.3903
79.36	11.7323
79.58	0.080795
79.8	7.16289
80.02	0.109941
80.24	10.428
80.46	7.6857
80.68	26.1928
80.9	17.4645
81.12	18.1982
81.34	26.2746
81.56	21.8096
81.78	7.13032
82	21.5882
82.22	4.27937
82.44	16.1903
82.66	17.0377
82.88	13.7954
83.1	16.4106
83.32	10.1655
83.54	5.78048
83.76	6.56269
83.98	10.2332
84.2	22.2729
84.42	8.20945
84.64	0.135592
84.86	9.73516
85.08	18.8603
85.3	7.59971
85.52	3.0796
85.74	18.7583
85.96	3.30089
86.18	1.592
86.4	16.8457
86.62	3.24072
86.84	3.93996
87.06	6.8612
87.28	2.27055
87.5	25.8729
87.72	19.7691
87.94	23.0748
88.16	1.5472
88.38	8.8408
88.6	10.2848
88.82	3.55206
89.04	11.3423
89.26	7.51069
89.48	16.8386
89.7	9.64932
89.92	12.7027
