Measurement: Powder, Xray Data XY Processed
Mineral: Lazulite
Rruff sample: R050110
Ideal chemistry: MgAl_2_(PO_4_)_2_(OH)_2_
Locality: Rapid Creek, Yukon Territory, Canada
Source: Rock Currier
Description: Azure-blue stubby crystals with complex terminations
Diffraction sample description: Powder
Measured chemistry: (Mg_0.84_Fe_0.16_)Al_2.00_(P_1.00_O_4_)_2_(OH)_2_
Cell parameters: a: 7.1451(4) b: 7.2767(9) c: 7.2294(5) alpha: 90. beta: 120.522(4) gamma: 90. volume: 323.79(3) crystal system: monoclinic
x	intensity
5	0
5.22	10.54
5.44	2.256
5.66	7.971
5.88	17.882
6.1	20.222
6.32	15.656
6.54	20.298
6.76	1.997
6.98	5.697
7.2	0.743
7.42	7.71
7.64	4.521
7.86	12.358
8.08	8.121
8.3	12.08
8.52	8.344
8.74	5.74
8.96	5.73
9.18	7.487
9.4	8.373
9.62	27.284
9.84	13.426
10.06	8.552
10.28	9.466
10.5	13.422
10.72	7.057
10.94	0.433
11.16	5.574
11.38	6.75
11.6	9.081
11.82	10.755
12.04	6
12.26	9.931
12.48	10.064
12.7	3.147
12.92	9.601
13.14	4.547
13.36	9.186
13.58	4.016
13.8	10.058
14.02	3.672
14.24	11.62
14.46	115.62
14.68	10.368
14.9	11.758
15.12	4.88
15.34	8.516
15.56	4.055
15.78	13.935
16	10.158
16.22	10.575
16.44	9.657
16.66	9.865
16.88	3.941
17.1	21.239
17.32	12.039
17.54	11.693
17.76	10.501
17.98	7.972
18.2	2.128
18.42	3.213
18.64	20.736
18.86	61.524
19.08	11.594
19.3	3.753
19.52	14.564
19.74	0.109
19.96	10.284
20.18	3.009
20.4	8.363
20.62	5.626
20.84	10.787
21.06	4.251
21.28	6.489
21.5	6.762
21.72	1.603
21.94	9.605
22.16	5.701
22.38	7.271
22.6	3.088
22.82	12.212
23.04	10.01
23.26	14.279
23.48	8.75
23.7	2.344
23.92	9.511
24.14	14.189
24.36	13.177
24.58	8.783
24.8	5.786
25.02	2.447
25.24	3.534
25.46	4.62
25.68	10.444
25.9	6.246
26.12	9.337
26.34	5.991
26.56	0.567
26.78	10.139
27	15.513
27.22	5.721
27.44	51.841
27.66	217.93
27.88	1965.33
28.1	31.907
28.32	38.572
28.54	84.696
28.76	13.442
28.98	308.562
29.2	48.052
29.42	8.201
29.64	4.963
29.86	3.72
30.08	2.093
30.3	2.594
30.52	11.539
30.74	2.611
30.96	8.222
31.18	14.35
31.4	18.762
31.62	15.463
31.84	12.122
32.06	5.044
32.28	8.071
32.5	9.313
32.72	10.487
32.94	1.923
33.16	6.521
33.38	4.359
33.6	9.307
33.82	6.501
34.04	15.493
34.26	11.624
34.48	14.09
34.7	6.16
34.92	4.344
35.14	44.529
35.36	25.39
35.58	1.003
35.8	10.76
36.02	21.84
36.24	4.222
36.46	9.631
36.68	6.753
36.9	3.06
37.12	10.87
37.34	5.798
37.56	2.686
37.78	5.683
38	12.114
38.22	11.626
38.44	18.696
38.66	10.218
38.88	8.704
39.1	3.514
39.32	4.836
39.54	8.603
39.76	15.457
39.98	54.319
40.2	18.713
40.42	15.081
40.64	87.277
40.86	9.492
41.08	5.003
41.3	15.481
41.52	5.761
41.74	10.792
41.96	21.003
42.18	4.642
42.4	11.355
42.62	6.898
42.84	4.883
43.06	7.43
43.28	1.722
43.5	6.509
43.72	6.056
43.94	13.161
44.16	17.99
44.38	2.344
44.6	10.454
44.82	4.029
45.04	22.683
45.26	14.394
45.48	19.754
45.7	72.301
45.92	127.614
46.14	25.456
46.36	21.98
46.58	12.789
46.8	7.417
47.02	15.248
47.24	11.753
47.46	12.162
47.68	6.508
47.9	4.425
48.12	11.582
48.34	5.606
48.56	12.335
48.78	5.166
49	4.133
49.22	2.148
49.44	3.381
49.66	9.198
49.88	9.015
50.1	15.857
50.32	5.072
50.54	29.78
50.76	49.657
50.98	6.464
51.2	11.757
51.42	8.881
51.64	3.072
51.86	2.653
52.08	5.834
52.3	12.114
52.52	9.058
52.74	36.116
52.96	5.006
53.18	15.895
53.4	10.991
53.62	3.702
53.84	11.67
54.06	3.622
54.28	3.964
54.5	2.226
54.72	18.993
54.94	10.186
55.16	23.948
55.38	36.713
55.6	7.26
55.82	0.68
56.04	7.309
56.26	11.262
56.48	13.123
56.7	16.937
56.92	28.385
57.14	4.593
57.36	7.958
57.58	63.196
57.8	7.823
58.02	9.785
58.24	6.814
58.46	11.823
58.68	47.262
58.9	109.871
59.12	35.029
59.34	20.155
59.56	7.198
59.78	23.925
60	13.509
60.22	41.261
60.44	8.396
60.66	6.145
60.88	2.034
61.1	4.958
61.32	5.79
61.54	7.748
61.76	5.262
61.98	14.708
62.2	13.114
62.42	9.358
62.64	3.546
62.86	13.608
63.08	2.82
63.3	2.742
63.52	9.78
63.74	1.61
63.96	9.29
64.18	10.038
64.4	12.36
64.62	13.132
64.84	11.66
65.06	3.005
65.28	5.517
65.5	4.161
65.72	12.355
65.94	4.484
66.16	9.436
66.38	21.235
66.6	34.121
66.82	4.222
67.04	8.489
67.26	21.982
67.48	14.312
67.7	11.131
67.92	14.587
68.14	9.702
68.36	3.775
68.58	10.004
68.8	10.323
69.02	3.536
69.24	8.642
69.46	2.365
69.68	7.408
69.9	8.297
70.12	1.612
70.34	1.565
70.56	4.621
70.78	6.35
71	3.691
71.22	2.895
71.44	14.203
71.66	9.191
71.88	2.869
72.1	11.08
72.32	2.546
72.54	12.001
72.76	7.439
72.98	6.382
73.2	3.832
73.42	13.876
73.64	5.156
73.86	14.796
74.08	4.527
74.3	18.923
74.52	16.42
74.74	8.398
74.96	0.252
75.18	1.168
75.4	18.801
75.62	1.163
75.84	0.646
76.06	6.511
76.28	19.733
76.5	4.045
76.72	7.494
76.94	2.923
77.16	13.789
77.38	14
77.6	8.847
77.82	7.84
78.04	2.914
78.26	1.69
78.48	13.327
78.7	7.35
78.92	7.042
79.14	12.671
79.36	4.641
79.58	7.185
79.8	5.521
80.02	9.256
80.24	2.649
80.46	12.046
80.68	5.638
80.9	10.007
81.12	14.771
81.34	18.879
81.56	28.898
81.78	8.591
82	6.157
82.22	16.354
82.44	4.986
82.66	12.661
82.88	12.658
83.1	8.355
83.32	8.296
83.54	7.7
83.76	6.929
83.98	8.48
84.2	8.837
84.42	5.728
84.64	15.481
84.86	14.575
85.08	9.588
85.3	4.045
85.52	8.721
85.74	4.05
85.96	5.728
86.18	12.399
86.4	11.017
86.62	2.547
86.84	1.104
87.06	11.735
87.28	2.472
87.5	40.49
87.72	16.006
87.94	10.564
88.16	12.13
88.38	3.482
88.6	10.104
88.82	2.13
89.04	2.934
89.26	12.637
89.48	4.699
89.7	17.867
89.92	20.766
