Measurement: Powder, Xray Data XY Processed
Mineral: Leadhillite
Rruff sample: R060047
Ideal chemistry: Pb^2+^_4_(S^6+^O_4_)(CO_3_)_2_(OH)_2_
Locality: Tsumeb mine, Tsumeb, Otavi District, Oshikoto, Namibia
Source: University of Arizona Mineral Museum
Description: Grayish-blue cleavage fragment
Diffraction sample description: Powder
Measured chemistry: Pb_4.00_(S_1.00_O_4_)(CO_3_)_2_(OH)_2_
Cell parameters: a: 9.101(1) b: 20.832(1) c: 11.5788(4) alpha: 90 beta: 90.376(7) gamma: 90 volume: 2195.1(2) crystal system: monoclinic
x	intensity
5	0
5.22	6.058
5.44	10.607
5.66	7.175
5.88	10.086
6.1	0.936
6.32	10.168
6.54	3.168
6.76	7.202
6.98	9.3
7.2	1.495
7.42	5.546
7.64	60.766
7.86	8.997
8.08	5.407
8.3	3.578
8.52	4.698
8.74	4.82
8.96	7.056
9.18	3.147
9.4	8.337
9.62	13.161
9.84	4.179
10.06	2.083
10.28	3.183
10.5	1.269
10.72	6.41
10.94	5.552
11.16	0.779
11.38	0.073
11.6	9.046
11.82	1.926
12.04	4.933
12.26	4.934
12.48	4.968
12.7	8.814
12.92	2.678
13.14	15.614
13.36	4.581
13.58	1.507
13.8	10.407
14.02	2.378
14.24	0.406
14.46	4.45
14.68	1.546
14.9	7.722
15.12	1.866
15.34	33.966
15.56	8.006
15.78	7.07
16	5.944
16.22	5.914
16.44	2.147
16.66	1.753
16.88	0.377
17.1	1.484
17.32	4.364
17.54	6.208
17.76	2.78
17.98	6.527
18.2	2.181
18.42	0.18
18.64	10.564
18.86	4.242
19.08	1.055
19.3	8.915
19.52	29.978
19.74	27.819
19.96	9.745
20.18	0.122
20.4	4.303
20.62	9.708
20.84	9.247
21.06	9.564
21.28	8.816
21.5	0.036
21.72	3
21.94	3.885
22.16	8.212
22.38	8.479
22.6	0.268
22.82	4.341
23.04	12.587
23.26	4.161
23.48	5.706
23.7	2.289
23.92	6.87
24.14	2.452
24.36	3.105
24.58	17.63
24.8	151.414
25.02	310.274
25.24	34.836
25.46	7.167
25.68	2.381
25.9	2.8
26.12	8.231
26.34	9.425
26.56	7.797
26.78	1.01
27	6.028
27.22	3.833
27.44	8.964
27.66	3.397
27.88	10.219
28.1	8.914
28.32	11.947
28.54	3.067
28.76	0.853
28.98	8.436
29.2	0.172
29.42	1.093
29.64	6.586
29.86	7.756
30.08	4.422
30.3	39.494
30.52	129.239
30.74	21.959
30.96	78.815
31.18	6.208
31.4	1.479
31.62	19.787
31.84	4.131
32.06	8.712
32.28	8.311
32.5	9.474
32.72	4.204
32.94	9.2
33.16	1.044
33.38	2.304
33.6	5.179
33.82	13.036
34.04	14.675
34.26	75.619
34.48	31.196
34.7	7.183
34.92	8.883
35.14	14.167
35.36	4.833
35.58	7.127
35.8	1.439
36.02	4.836
36.24	6.134
36.46	8.251
36.68	13.248
36.9	23.313
37.12	8.189
37.34	8.65
37.56	7.277
37.78	8.526
38	11.174
38.22	1.13
38.44	4.407
38.66	2.943
38.88	180.814
39.1	27.674
39.32	11.399
39.54	9.088
39.76	3.117
39.98	1.632
40.2	3.564
40.42	8.74
40.64	12.738
40.86	3.168
41.08	5.439
41.3	5.265
41.52	1.01
41.74	14.644
41.96	1.744
42.18	6.63
42.4	9.235
42.62	16.854
42.84	29.503
43.06	40.298
43.28	23.936
43.5	13.125
43.72	27.313
43.94	39.779
44.16	5.601
44.38	5.467
44.6	2.066
44.82	13.407
45.04	6.731
45.26	1.011
45.48	3.151
45.7	1.13
45.92	4.249
46.14	21.842
46.36	15.431
46.58	30.51
46.8	21.137
47.02	22.315
47.24	8.474
47.46	5.736
47.68	1.598
47.9	6.018
48.12	10.342
48.34	11.635
48.56	4.902
48.78	0.98
49	0.841
49.22	3.992
49.44	16.247
49.66	6.638
49.88	2.365
50.1	4.546
50.32	4.992
50.54	4.585
50.76	11.615
50.98	16.126
51.2	11.669
51.42	7.258
51.64	7.721
51.86	5.947
52.08	1.87
52.3	11.672
52.52	21.922
52.74	18.029
52.96	31.026
53.18	9.256
53.4	0.604
53.62	2.943
53.84	4.224
54.06	8.706
54.28	6.037
54.5	4.257
54.72	12.272
54.94	4.21
55.16	5.279
55.38	1.202
55.6	6.857
55.82	16.735
56.04	14.998
56.26	7.503
56.48	6.612
56.7	2.667
56.92	8.155
57.14	8.141
57.36	0.582
57.58	3.388
57.8	6.47
58.02	8.529
58.24	2.577
58.46	1.654
58.68	1.566
58.9	13.413
59.12	15.629
59.34	35.828
59.56	68.342
59.78	13.222
60	6.315
60.22	4.42
60.44	9.792
60.66	3.796
60.88	5.717
61.1	9.94
61.32	9.061
61.54	9.542
61.76	9.927
61.98	6.382
62.2	5.339
62.42	0.595
62.64	9.187
62.86	1.262
63.08	9.64
63.3	5.189
63.52	10.357
63.74	8.486
63.96	7.895
64.18	3.263
64.4	2.688
64.62	10.945
64.84	4.245
65.06	2.616
65.28	5.006
65.5	11.986
65.72	10.737
65.94	10.647
66.16	7.859
66.38	10.724
66.6	6.589
66.82	3.358
67.04	2.159
67.26	1.997
67.48	1.728
67.7	6.595
67.92	4.565
68.14	12.563
68.36	8.953
68.58	4.905
68.8	2.786
69.02	10.721
69.24	2.658
69.46	2.582
69.68	9.459
69.9	15.265
70.12	13.074
70.34	11.979
70.56	13.066
70.78	14.505
71	2.194
71.22	7.43
71.44	1.515
71.66	0.474
71.88	1.518
72.1	14.175
72.32	11.109
72.54	9.915
72.76	11.635
72.98	3.088
73.2	5.06
73.42	3.788
73.64	12.694
73.86	10.493
74.08	6.433
74.3	9.38
74.52	13.939
74.74	20.372
74.96	2.602
75.18	8.746
75.4	7.756
75.62	2.677
75.84	0.635
76.06	6.408
76.28	5.373
76.5	8.442
76.72	9.161
76.94	12.234
77.16	12.652
77.38	5.855
77.6	4.877
77.82	7.491
78.04	14.777
78.26	11.985
78.48	2.434
78.7	6.884
78.92	9.949
79.14	6.986
79.36	0.16
79.58	1.825
79.8	8.536
80.02	9.456
80.24	6.889
80.46	0.254
80.68	7.037
80.9	4.955
81.12	11.012
81.34	12.268
81.56	2.678
81.78	3.014
82	6.388
82.22	8.507
82.44	3.786
82.66	4.818
82.88	4.73
83.1	7.447
83.32	10.111
83.54	10.849
83.76	18.593
83.98	9.464
84.2	8.373
84.42	8.332
84.64	4.422
84.86	2.297
85.08	4.449
85.3	8.448
85.52	6.511
85.74	2.445
85.96	1.598
86.18	1.276
86.4	6.299
86.62	1.035
86.84	4.901
87.06	5.749
87.28	2.838
87.5	3.947
87.72	6.059
87.94	7.12
88.16	0.334
88.38	3.854
88.6	3.215
88.82	5.247
89.04	12.573
89.26	5.942
89.48	1.781
89.7	0.139
89.92	6.494
