Measurement: Powder, Xray Data XY Processed
Mineral: Legrandite
Rruff sample: R040151
Ideal chemistry: Zn^2+^_2_As^5+^O_4_(OH)H_2_O
Locality: Mapimi, Durango, Mexico
Source: University of Arizona Mineral Museum
Description: Yellow crystal fragments; same material used in McLean et al. (1971) study
Diffraction sample description: Powder
Measured chemistry: Zn_1.88_Fe^2+^_0.04_As_1.03_O_4_(OH)Â·H_2_O
Cell parameters: a: 12.8147(8) b: 7.9307(6) c: 10.2217(4) alpha: 90. beta: 104.389(7) gamma: 90. volume: 1006.24(9) crystal system: monoclinic
x	intensity
5	0
5.22	13.5189
5.44	6.58197
5.66	9.04035
5.88	17.7171
6.1	8.70849
6.32	6.06754
6.54	13.5805
6.76	15.059
6.98	34.4657
7.2	164.406
7.42	9.93513
7.64	4.27951
7.86	12.9704
8.08	4.51277
8.3	5.09298
8.52	4.21731
8.74	7.78791
8.96	14.7279
9.18	4.41875
9.4	6.23766
9.62	3.35237
9.84	11.4668
10.06	8.44138
10.28	9.55132
10.5	14.7729
10.72	14.6559
10.94	18.3972
11.16	10.84
11.38	4.79916
11.6	1.99056
11.82	6.92204
12.04	15.5228
12.26	1.18687
12.48	3.54544
12.7	6.87321
12.92	13.0185
13.14	35.2202
13.36	59.9952
13.58	11.7696
13.8	14.0735
14.02	13.1008
14.24	6.03944
14.46	3.32138
14.68	11.4589
14.9	34.7479
15.12	21.4434
15.34	18.6301
15.56	3.82199
15.78	6.39855
16	6.69694
16.22	6.79413
16.44	15.828
16.66	4.20229
16.88	12.5174
17.1	8.38765
17.32	2.83087
17.54	21.4991
17.76	16.6471
17.98	18.445
18.2	97.1701
18.42	8.22285
18.64	26.2921
18.86	15.7431
19.08	9.66169
19.3	9.87233
19.52	2.03936
19.74	23.7977
19.96	9.88311
20.18	5.7616
20.4	3.47773
20.62	0.797554
20.84	1.01467
21.06	26.3901
21.28	104.481
21.5	211.317
21.72	47.9429
21.94	71.5001
22.16	13.79
22.38	2.45549
22.6	4.72122
22.82	0.988504
23.04	13.3377
23.26	2.56711
23.48	6.75953
23.7	1.05506
23.92	14.6154
24.14	8.49634
24.36	47.6983
24.58	60.5974
24.8	7.01797
25.02	0.02405
25.24	14.8607
25.46	10.8568
25.68	9.58679
25.9	117.676
26.12	10.3646
26.34	14.0354
26.56	12.3718
26.78	1.69146
27	82.5644
27.22	15.9454
27.44	1.48855
27.66	0.760113
27.88	10.7648
28.1	18.1155
28.32	0.987103
28.54	86.8783
28.76	48.2236
28.98	162.339
29.2	11.6881
29.42	34.8628
29.64	296.901
29.86	25.8826
30.08	209.295
30.3	53.6626
30.52	4.67612
30.74	7.97789
30.96	74.6618
31.18	5.32453
31.4	8.88998
31.62	10.4557
31.84	14.7776
32.06	71.6901
32.28	1371.48
32.5	15.881
32.72	13.5229
32.94	8.29042
33.16	2.60579
33.38	7.43725
33.6	35.312
33.82	7.09713
34.04	84.9731
34.26	135.767
34.48	45.8555
34.7	39.6406
34.92	7.04868
35.14	65.3616
35.36	5.25263
35.58	82.574
35.8	24.2538
36.02	8.93444
36.24	48.6855
36.46	9.30076
36.68	3.24661
36.9	76.4815
37.12	39.3301
37.34	18.4718
37.56	35.0054
37.78	3.26495
38	40.3697
38.22	7.31134
38.44	12.6061
38.66	23.6426
38.88	92.5336
39.1	15.4939
39.32	3.70538
39.54	4.69152
39.76	1.45217
39.98	6.93012
40.2	3.41275
40.42	38.1223
40.64	88.337
40.86	14.7388
41.08	4.20955
41.3	6.09386
41.52	3.40461
41.74	3.99828
41.96	39.086
42.18	66.8324
42.4	48.9038
42.62	16.118
42.84	11.278
43.06	6.52839
43.28	11.6335
43.5	5.32569
43.72	2.95668
43.94	9.2026
44.16	13.1146
44.38	6.56557
44.6	24.9518
44.82	38.1851
45.04	28.3615
45.26	4.10071
45.48	2.54687
45.7	12.3138
45.92	19.6488
46.14	26.9811
46.36	10.0599
46.58	8.0648
46.8	0.695995
47.02	6.80027
47.24	12.1319
47.46	14.3613
47.68	17.2
47.9	4.95749
48.12	8.90633
48.34	20.1052
48.56	32.9785
48.78	35.9704
49	16.1162
49.22	16.1829
49.44	0.010973
49.66	14.8621
49.88	34.9374
50.1	14.7283
50.32	1.78161
50.54	58.3059
50.76	17.7995
50.98	6.62433
51.2	0.789511
51.42	74.7184
51.64	18.5933
51.86	3.51808
52.08	5.2229
52.3	0.484341
52.52	30.4844
52.74	16.0279
52.96	15.194
53.18	48.2388
53.4	13.2673
53.62	0.969196
53.84	16.8496
54.06	41.3595
54.28	3.56827
54.5	28.86
54.72	3.22309
54.94	3.51353
55.16	26.8348
55.38	40.142
55.6	48.9217
55.82	49.851
56.04	14.6076
56.26	0.076406
56.48	6.24586
56.7	16.2727
56.92	2.08429
57.14	21.8643
57.36	13.3985
57.58	344.698
57.8	26.2722
58.02	22.1283
58.24	10.7315
58.46	9.47227
58.68	8.8787
58.9	18.0876
59.12	26.0728
59.34	35.3109
59.56	117.718
59.78	21.4612
60	15.6439
60.22	22.3815
60.44	19.429
60.66	15.6305
60.88	63.2824
61.1	3.70541
61.32	3.29368
61.54	11.8054
61.76	16.333
61.98	1.59195
62.2	10.7869
62.42	5.9891
62.64	13.3948
62.86	9.5334
63.08	9.5333
63.3	3.66046
63.52	10.0313
63.74	11.5019
63.96	9.67186
64.18	29.127
64.4	3.17429
64.62	22.4653
64.84	7.90516
65.06	5.01972
65.28	28.2309
65.5	7.11551
65.72	33.73
65.94	8.49782
66.16	2.7171
66.38	23.8827
66.6	27.7846
66.82	60.0326
67.04	20.3837
67.26	5.43574
67.48	16.8252
67.7	2.95328
67.92	28.6456
68.14	5.07002
68.36	7.78196
68.58	107.476
68.8	95.0795
69.02	10.1735
69.24	11.4253
69.46	3.41313
69.68	6.16508
69.9	3.02123
70.12	2.32161
70.34	5.14218
70.56	16.8241
70.78	3.49926
71	12.6088
71.22	13.2901
71.44	13.2495
71.66	4.2278
71.88	13.3312
72.1	22.5167
72.32	12.8499
72.54	13.2536
72.76	17.3074
72.98	2.77193
73.2	0.770205
73.42	17.1657
73.64	3.4566
73.86	2.7217
74.08	11.917
74.3	17.6154
74.52	25.2004
74.74	4.32441
74.96	8.00621
75.18	22.2387
75.4	9.52283
75.62	4.96665
75.84	30.6388
76.06	22.6175
76.28	17.8284
76.5	11.1228
76.72	2.44117
76.94	16.9038
77.16	19.243
77.38	5.66051
77.6	0.822123
77.82	12.3902
78.04	7.40651
78.26	6.70254
78.48	6.97809
78.7	13.4079
78.92	1.84663
79.14	28.7823
79.36	16.4654
79.58	7.43605
79.8	9.67131
80.02	2.41453
80.24	7.05916
80.46	8.93731
80.68	1.23617
80.9	13.7512
81.12	2.78869
81.34	6.60339
81.56	9.5668
81.78	0.565863
82	9.25264
82.22	15.5969
82.44	14.42
82.66	14.6225
82.88	7.90712
83.1	26.028
83.32	9.79946
83.54	10.2041
83.76	3.01705
83.98	10.8837
84.2	0.90251
84.42	15.2942
84.64	13.2875
84.86	11.5387
85.08	12.5533
85.3	11.9461
85.52	11.8271
85.74	9.96396
85.96	12.2158
86.18	7.859
86.4	4.93109
86.62	7.99538
86.84	15.5356
87.06	14.4963
87.28	16.4042
87.5	12.0527
87.72	7.20805
87.94	4.97376
88.16	7.98825
88.38	36.391
88.6	10.0251
88.82	5.75774
89.04	14.6923
89.26	2.50127
89.48	12.5481
89.7	10.3867
89.92	5.10584
