Measurement: Powder, Xray Data XY Processed
Mineral: Leiteite
Rruff sample: R040011
Ideal chemistry: Zn^2+^As^3+^_2_O_4_
Locality: Tsumeb mine, Tsumeb, Otavi District, Oshikoto, Namibia
Source: Dave Bunk Minerals
Description: Transparent tan colored flexible lamellar crystal
Diffraction sample description: Powder
Measured chemistry: Zn_1.00_As^3+^_2.00_O_4_
Cell parameters: a: 4.5443(4) b: 5.0143(3) c: 17.6107(7) alpha: 90. beta: 90.751(4) gamma: 90. volume: 401.26(4) crystal system: monoclinic
x	intensity
5	0
5.22	13.503
5.44	11.214
5.66	7.34
5.88	4.472
6.1	6.787
6.32	30.639
6.54	15.534
6.76	21.531
6.98	18.98
7.2	20.095
7.42	11.658
7.64	3.116
7.86	0.627
8.08	10.669
8.3	11.837
8.52	10.902
8.74	10.739
8.96	8.122
9.18	2.306
9.4	3.648
9.62	11.801
9.84	34.133
10.06	380.702
10.28	15.432
10.5	0.184
10.72	0.926
10.94	1.718
11.16	1.203
11.38	4.649
11.6	5.867
11.82	8.236
12.04	4.578
12.26	14.932
12.48	7.762
12.7	8.845
12.92	7.725
13.14	4.656
13.36	2.556
13.58	7.138
13.8	0.034
14.02	5.64
14.24	13.664
14.46	4.81
14.68	8.914
14.9	15.112
15.12	9.146
15.34	8.082
15.56	8.181
15.78	12.36
16	4.794
16.22	4.751
16.44	4.452
16.66	4.135
16.88	3.794
17.1	1.284
17.32	8.06
17.54	17.85
17.76	41.314
17.98	9.7
18.2	11.285
18.42	11.087
18.64	8.283
18.86	1.759
19.08	1.29
19.3	1.749
19.52	20.298
19.74	15.923
19.96	31.479
20.18	812.787
20.4	40.227
20.62	17.365
20.84	15.685
21.06	17.135
21.28	5.83
21.5	9.634
21.72	6.318
21.94	2.856
22.16	8.469
22.38	2.2
22.6	4.562
22.82	11.139
23.04	7.705
23.26	8.185
23.48	8.14
23.7	8.702
23.92	6.174
24.14	3.798
24.36	0.543
24.58	4.986
24.8	9.197
25.02	11.848
25.24	9.217
25.46	10.637
25.68	8.404
25.9	3.732
26.12	0.111
26.34	4.201
26.56	11.668
26.78	39.897
27	70.025
27.22	24.601
27.44	54.402
27.66	5.184
27.88	1.715
28.1	37.394
28.32	155.277
28.54	160.844
28.76	13.627
28.98	9.135
29.2	3.17
29.42	9.483
29.64	8.389
29.86	50.634
30.08	48.182
30.3	353.737
30.52	3047.55
30.74	190.708
30.96	58.621
31.18	18.459
31.4	15.062
31.62	5.989
31.84	1.404
32.06	8.05
32.28	6.294
32.5	12.271
32.72	8.029
32.94	13.02
33.16	21.58
33.38	22.673
33.6	16.672
33.82	24.278
34.04	20.281
34.26	8.329
34.48	6.936
34.7	14.678
34.92	6.71
35.14	33.385
35.36	22.151
35.58	21.81
35.8	49.695
36.02	8.114
36.24	4.721
36.46	12.902
36.68	30.432
36.9	29.579
37.12	40.418
37.34	16.893
37.56	17.639
37.78	16.985
38	0.064
38.22	0.221
38.44	14.244
38.66	1.553
38.88	13.745
39.1	0.053
39.32	21.121
39.54	6.422
39.76	8.48
39.98	1.189
40.2	7.626
40.42	12.807
40.64	5.045
40.86	19.147
41.08	41.071
41.3	30.542
41.52	14.325
41.74	44.548
41.96	15.143
42.18	9.974
42.4	5.771
42.62	7.128
42.84	12.197
43.06	3.976
43.28	0.937
43.5	10.098
43.72	3.705
43.94	1.673
44.16	17.718
44.38	13.692
44.6	32.544
44.82	65.461
45.04	46.426
45.26	35.781
45.48	8.666
45.7	17.396
45.92	14.647
46.14	15.903
46.36	3.225
46.58	2.771
46.8	10.9
47.02	11.694
47.24	5.494
47.46	11.047
47.68	9.279
47.9	3.458
48.12	7.388
48.34	3.695
48.56	10.987
48.78	0.185
49	17.145
49.22	107.012
49.44	50.256
49.66	101.018
49.88	73.55
50.1	10.836
50.32	11.172
50.54	9.557
50.76	0.026
50.98	7.468
51.2	5.374
51.42	14.317
51.64	12.586
51.86	122.918
52.08	93.605
52.3	12.481
52.52	8.119
52.74	12.016
52.96	0.801
53.18	0.574
53.4	0.948
53.62	2.089
53.84	4.115
54.06	13.158
54.28	24.164
54.5	50.785
54.72	14.783
54.94	15.194
55.16	29.577
55.38	6.37
55.6	5.028
55.82	9.772
56.04	21.036
56.26	6.609
56.48	9.82
56.7	11.518
56.92	19.49
57.14	3.581
57.36	6.526
57.58	10.018
57.8	3.134
58.02	11.369
58.24	9.051
58.46	2.81
58.68	8.348
58.9	32.533
59.12	17.006
59.34	16.115
59.56	12.114
59.78	11.168
60	22.79
60.22	17.653
60.44	2.349
60.66	1.256
60.88	18.153
61.1	3.773
61.32	16.189
61.54	5.008
61.76	12.216
61.98	7.979
62.2	0.943
62.42	5.185
62.64	8.105
62.86	6.841
63.08	24.621
63.3	180.432
63.52	117.44
63.74	22.006
63.96	35.376
64.18	62.822
64.4	16.915
64.62	4.883
64.84	17.599
65.06	12.84
65.28	34.582
65.5	27.569
65.72	6.527
65.94	13.693
66.16	0.803
66.38	1.401
66.6	4.706
66.82	10.501
67.04	22.433
67.26	57.443
67.48	30.703
67.7	6.052
67.92	12.334
68.14	15.493
68.36	1.244
68.58	11.029
68.8	4.319
69.02	12.397
69.24	6.611
69.46	16.924
69.68	41.272
69.9	20.752
70.12	24.46
70.34	19.76
70.56	24.184
70.78	6.618
71	8.231
71.22	3.702
71.44	4.54
71.66	2.194
71.88	3.296
72.1	13.903
72.32	1.907
72.54	7.946
72.76	7.56
72.98	6.383
73.2	8.428
73.42	8.926
73.64	12.618
73.86	6.814
74.08	7.456
74.3	12.856
74.52	4.044
74.74	25.746
74.96	4.838
75.18	8.997
75.4	23.897
75.62	27.943
75.84	18.783
76.06	3.488
76.28	0.644
76.5	0.774
76.72	3.373
76.94	4.801
77.16	13.002
77.38	2.894
77.6	5.023
77.82	4.791
78.04	7.342
78.26	7.028
78.48	7.455
78.7	12.033
78.92	17.099
79.14	13.308
79.36	11.626
79.58	7.054
79.8	1.13
80.02	14.117
80.24	2.141
80.46	1.89
80.68	14.962
80.9	0.159
81.12	6.568
81.34	23.466
81.56	18.071
81.78	29.081
82	27.686
82.22	17.665
82.44	5.008
82.66	5.293
82.88	7.671
83.1	3.12
83.32	2.557
83.54	15.375
83.76	7.892
83.98	5.043
84.2	10.169
84.42	2.535
84.64	12.947
84.86	2.438
85.08	8.634
85.3	1.456
85.52	1.589
85.74	9.602
85.96	9.94
86.18	7.472
86.4	2.963
86.62	6.282
86.84	4.522
87.06	14.97
87.28	1.978
87.5	7.427
87.72	10.033
87.94	11.492
88.16	7.152
88.38	5.146
88.6	15.41
88.82	22.031
89.04	8.499
89.26	10.902
89.48	3.889
89.7	4.702
89.92	1.49
