Measurement: Powder, Xray Data XY Processed
Mineral: Lepidocrocite
Rruff sample: R050454
Ideal chemistry: Fe^3+^O(OH)
Locality: Malvern, Chester County, Pennsylvania, USA
Source: University of Arizona Mineral Museum
Description: Aggregate of red-brown flattened and platy crystals
Diffraction sample description: Powder
Measured chemistry: Fe^3+^_0.99_O(OH)
Cell parameters: a: 12.4682(7) b: 3.8584(5) c: 3.064(1) alpha: 90 beta: 90 gamma: 90 volume: 147.40(5) crystal system: orthorhombic
x	intensity
5	0
5.22	28.3697
5.44	6.89426
5.66	14.728
5.88	8.17476
6.1	26.1612
6.32	6.70958
6.54	27.6472
6.76	32.8989
6.98	20.8672
7.2	13.9176
7.42	3.83464
7.64	26.4459
7.86	26.4131
8.08	20.6213
8.3	18.5453
8.52	4.17394
8.74	8.23772
8.96	14.0836
9.18	6.91697
9.4	20.0523
9.62	15.3055
9.84	14.9371
10.06	25.1228
10.28	27.6052
10.5	2.21367
10.72	12.6754
10.94	28.4008
11.16	24.8399
11.38	16.8024
11.6	18.1465
11.82	16.9491
12.04	24.1513
12.26	12.4125
12.48	21.6594
12.7	12.5159
12.92	19.3966
13.14	23.3895
13.36	19.7213
13.58	23.6643
13.8	23.7391
14.02	34.397
14.24	77.6905
14.46	15.2119
14.68	10.1556
14.9	11.4661
15.12	12.0004
15.34	27.82
15.56	7.97102
15.78	4.26269
16	13.785
16.22	7.70007
16.44	7.2594
16.66	24.649
16.88	7.59843
17.1	7.1713
17.32	16.302
17.54	11.4649
17.76	9.13532
17.98	32.373
18.2	18.0132
18.42	14.7312
18.64	15.4342
18.86	11.2713
19.08	4.21645
19.3	8.26814
19.52	8.27685
19.74	22.6788
19.96	1.13363
20.18	14.2467
20.4	5.64295
20.62	8.11803
20.84	21.2968
21.06	14.7656
21.28	14.249
21.5	33.0687
21.72	16.9663
21.94	17.1206
22.16	7.39486
22.38	15.2336
22.6	14.4665
22.82	18.8025
23.04	10.4725
23.26	0.407814
23.48	15.1598
23.7	31.3189
23.92	31.6737
24.14	28.8736
24.36	15.0417
24.58	11.3504
24.8	2.29569
25.02	20.1578
25.24	25.0411
25.46	47.0335
25.68	17.3615
25.9	12.4289
26.12	23.5831
26.34	16.514
26.56	13.8353
26.78	14.8746
27	40.5539
27.22	19.8739
27.44	6.73728
27.66	6.37398
27.88	18.7356
28.1	14.1119
28.32	1.92628
28.54	13.6825
28.76	23.6958
28.98	35.7413
29.2	20.5474
29.42	14.3215
29.64	20.5954
29.86	24.1126
30.08	22.4941
30.3	17.956
30.52	17.8494
30.74	23.652
30.96	7.78677
31.18	1.26616
31.4	4.44698
31.62	19.0549
31.84	3.15794
32.06	27.5537
32.28	39.7222
32.5	15.8582
32.72	21.1027
32.94	12.3187
33.16	13.676
33.38	26.1347
33.6	26.5666
33.82	20.7859
34.04	13.6918
34.26	24.3649
34.48	38.1125
34.7	26.4413
34.92	10.549
35.14	15.0147
35.36	7.21229
35.58	14.237
35.8	27.2986
36.02	13.4684
36.24	45.4163
36.46	45.5302
36.68	23.3311
36.9	35.6594
37.12	16.1709
37.34	16.1281
37.56	4.99634
37.78	28.262
38	11.9866
38.22	33.0078
38.44	9.20087
38.66	16.733
38.88	14.4214
39.1	22.2953
39.32	19.4107
39.54	17.0124
39.76	35.9867
39.98	10.2577
40.2	30.8694
40.42	17.3491
40.64	29.7782
40.86	20.9687
41.08	7.72942
41.3	28.0005
41.52	20.3181
41.74	14.3724
41.96	25.8895
42.18	16.8609
42.4	20.2069
42.62	7.42805
42.84	25.0837
43.06	13.5973
43.28	14.4225
43.5	25.4306
43.72	31.0942
43.94	1.71755
44.16	16.2447
44.38	16.991
44.6	2.56697
44.82	20.4063
45.04	21.8262
45.26	21.0967
45.48	28.1607
45.7	19.7359
45.92	12.5204
46.14	15.4381
46.36	26.9943
46.58	18.8459
46.8	30.6174
47.02	34.3854
47.24	8.36637
47.46	34.9004
47.68	2.7591
47.9	18.5705
48.12	33.7248
48.34	27.8768
48.56	12.1566
48.78	20.9877
49	22.0926
49.22	17.5934
49.44	14.2617
49.66	12.0591
49.88	7.41458
50.1	25.7524
50.32	13.657
50.54	0.171722
50.76	13.4447
50.98	40.0191
51.2	42.0598
51.42	20.1959
51.64	20.6901
51.86	1.57045
52.08	8.92014
52.3	5.41498
52.52	29.3647
52.74	17.2531
52.96	32.1937
53.18	9.05103
53.4	17.2862
53.62	20.8861
53.84	0.902565
54.06	15.6427
54.28	4.11073
54.5	28.7319
54.72	22.6743
54.94	17.9533
55.16	10.3955
55.38	24.0472
55.6	10.0148
55.82	16.5995
56.04	37.788
56.26	45.31
56.48	30.7478
56.7	30.2843
56.92	36.711
57.14	17.2967
57.36	7.68011
57.58	10.9727
57.8	13.254
58.02	23.7524
58.24	7.44808
58.46	24.1485
58.68	10.3542
58.9	27.113
59.12	15.6962
59.34	4.39531
59.56	14.0931
59.78	20.3505
60	4.65754
60.22	27.7049
60.44	21.771
60.66	5.37049
60.88	11.9748
61.1	22.1387
61.32	8.60622
61.54	27.9083
61.76	8.8349
61.98	27.8352
62.2	34.8449
62.42	12.7502
62.64	2.20787
62.86	4.97649
63.08	19.1155
63.3	38.3029
63.52	16.348
63.74	5.78519
63.96	7.39352
64.18	19.4267
64.4	16.5069
64.62	9.29478
64.84	29.4506
65.06	10.3561
65.28	5.17357
65.5	14.0682
65.72	2.35871
65.94	33.606
66.16	30.7558
66.38	26.4684
66.6	35.0429
66.82	24.7887
67.04	8.49938
67.26	42.95
67.48	19.8807
67.7	36.9226
67.92	45.3725
68.14	6.25645
68.36	4.30058
68.58	5.19348
68.8	15.1447
69.02	26.321
69.24	17.3348
69.46	0.152275
69.68	7.23689
69.9	10.1026
70.12	22.5825
70.34	34.6068
70.56	2.63957
70.78	14.5778
71	19.2049
71.22	22.2724
71.44	0.333702
71.66	43.0366
71.88	36.2196
72.1	39.2764
72.32	14.3076
72.54	37.2932
72.76	37.0737
72.98	11.9482
73.2	5.12527
73.42	5.59826
73.64	22.2593
73.86	26.7049
74.08	31.389
74.3	2.55428
74.52	11.5447
74.74	24.151
74.96	43.4329
75.18	34.6999
75.4	19.1166
75.62	14.3159
75.84	27.8914
76.06	7.55938
76.28	42.0803
76.5	28.9574
76.72	29.9883
76.94	21.6186
77.16	33.5014
77.38	24.9618
77.6	6.23855
77.82	27.6785
78.04	18.5794
78.26	37.6732
78.48	14.7993
78.7	21.4884
78.92	18.7874
79.14	29.3801
79.36	27.0448
79.58	9.95731
79.8	23.0667
80.02	27.4142
80.24	8.37497
80.46	8.79407
80.68	27.0562
80.9	30.4475
81.12	19.6601
81.34	2.71831
81.56	54.4534
81.78	14.5109
82	29.6005
82.22	23.9069
82.44	31.8793
82.66	20.7904
82.88	23.9728
83.1	8.19522
83.32	11.3181
83.54	3.1572
83.76	34.9031
83.98	33.0557
84.2	23.3321
84.42	8.17098
84.64	9.59964
84.86	19.475
85.08	21.3366
85.3	14.112
85.52	27.2074
85.74	29.6997
85.96	29.7775
86.18	35.3274
86.4	11.3332
86.62	18.4826
86.84	15.208
87.06	11.7579
87.28	15.5247
87.5	2.99928
87.72	12.233
87.94	22.3838
88.16	12.8138
88.38	40.8924
88.6	22.2716
88.82	25.7835
89.04	18.5703
89.26	10.1061
89.48	26.8392
89.7	33.5261
89.92	23.2923
