Measurement: Powder, Xray Data XY Processed
Mineral: Leucophanite
Rruff sample: R050004
Ideal chemistry: NaCaBeSi_2_O_6_F
Locality: Langesundfjord, Norway
Source: University of Arizona Mineral Museum
Description: Pale green massive
Diffraction sample description: Powder
Measured chemistry: Ca_1.00_Ca_1.00_Na_2.00_Be_2.00_Si_4.00_O_12_(F_0.96_(OH)_0.04_)_2_
Cell parameters: a: 7.395(4) b: 7.411(4) c: 9.9777(4) alpha: 90 beta: 90 gamma: 90 volume: 546.88(6) crystal system: orthorhombic
x	intensity
5	0
5.22	11.131
5.44	8.643
5.66	8.749
5.88	7.848
6.1	8.988
6.32	6.396
6.54	11.88
6.76	10.056
6.98	14.771
7.2	11.229
7.42	2.861
7.64	5.595
7.86	7.185
8.08	1.212
8.3	0.723
8.52	12.213
8.74	8.733
8.96	9.308
9.18	5.755
9.4	6.544
9.62	3.53
9.84	0.708
10.06	5.656
10.28	14.84
10.5	5.018
10.72	4.995
10.94	7.149
11.16	1.101
11.38	5.932
11.6	2.799
11.82	8.831
12.04	5.865
12.26	9.755
12.48	10.623
12.7	5.439
12.92	5.793
13.14	5.578
13.36	3.46
13.58	12.502
13.8	0.551
14.02	0.29
14.24	1.889
14.46	4.158
14.68	11.491
14.9	74.719
15.12	10.177
15.34	2.973
15.56	6.181
15.78	10.31
16	10.334
16.22	1.591
16.44	9.367
16.66	3.143
16.88	6.957
17.1	6.722
17.32	9.145
17.54	3.771
17.76	117.919
17.98	11.898
18.2	0.953
18.42	7.102
18.64	6.428
18.86	1.301
19.08	5.955
19.3	6.145
19.52	11.276
19.74	4.125
19.96	0.286
20.18	5.157
20.4	4.042
20.62	5.181
20.84	0.244
21.06	2.117
21.28	2.074
21.5	25.235
21.72	3.146
21.94	2.16
22.16	10.02
22.38	1.2
22.6	4.296
22.82	8.199
23.04	0.842
23.26	0.468
23.48	1.906
23.7	7.667
23.92	3.033
24.14	5.732
24.36	7.394
24.58	63.054
24.8	61.632
25.02	5.336
25.24	2.443
25.46	12.921
25.68	95.098
25.9	9.247
26.12	2.427
26.34	7.904
26.56	8.284
26.78	9.437
27	14.606
27.22	1.558
27.44	2.407
27.66	6.104
27.88	6.553
28.1	7.221
28.32	10.965
28.54	18.653
28.76	7.072
28.98	0.328
29.2	9.393
29.42	81.176
29.64	17.068
29.86	19.385
30.08	248.978
30.3	25.433
30.52	12.413
30.74	9.392
30.96	4.366
31.18	1.735
31.4	1.09
31.62	7.97
31.84	6.85
32.06	14.768
32.28	56.57
32.5	537.902
32.72	50.073
32.94	7.56
33.16	1.83
33.38	0.82
33.6	0.796
33.82	8.326
34.04	3.051
34.26	21.494
34.48	11.931
34.7	13.494
34.92	2.583
35.14	6.651
35.36	5.508
35.58	2.891
35.8	4.961
36.02	36.868
36.24	6.675
36.46	0.184
36.68	2.355
36.9	2.619
37.12	1.851
37.34	0.13
37.56	4.485
37.78	0.845
38	28.863
38.22	48.38
38.44	95.709
38.66	17.183
38.88	92.136
39.1	8.543
39.32	2.813
39.54	22.024
39.76	11.365
39.98	15.807
40.2	22.414
40.42	1.529
40.64	11.293
40.86	83.122
41.08	6.677
41.3	0.615
41.52	2.074
41.74	1.194
41.96	0.325
42.18	4.187
42.4	11.464
42.62	22.608
42.84	7.169
43.06	4.675
43.28	3.487
43.5	1.614
43.72	4.387
43.94	5.276
44.16	13.121
44.38	2.885
44.6	1.575
44.82	1.421
45.04	12.372
45.26	11.507
45.48	71.835
45.7	68.066
45.92	15.734
46.14	8.546
46.36	4.472
46.58	3.522
46.8	6.446
47.02	4.303
47.24	4.321
47.46	10.411
47.68	5.269
47.9	19.744
48.12	13.418
48.34	5.259
48.56	4.46
48.78	6.47
49	14.349
49.22	55.366
49.44	11.278
49.66	2.844
49.88	0.937
50.1	5.406
50.32	5.285
50.54	20.436
50.76	13.41
50.98	12.095
51.2	7.938
51.42	2.218
51.64	8.513
51.86	8.435
52.08	29.784
52.3	17.368
52.52	24.637
52.74	18.842
52.96	11.616
53.18	4.565
53.4	5.544
53.62	66.94
53.84	69.705
54.06	20.965
54.28	14.02
54.5	11.719
54.72	3.082
54.94	2.409
55.16	13.194
55.38	34.507
55.6	26.805
55.82	16.144
56.04	11.094
56.26	2.933
56.48	0.411
56.7	11.822
56.92	2.95
57.14	0.935
57.36	5.029
57.58	0.728
57.8	7.737
58.02	7.9
58.24	33.137
58.46	24.045
58.68	8.714
58.9	7.021
59.12	6.084
59.34	1.651
59.56	0.521
59.78	4.562
60	2.666
60.22	1.74
60.44	3.511
60.66	0.271
60.88	11.014
61.1	23.886
61.32	14.628
61.54	4.578
61.76	2.318
61.98	4.218
62.2	5.312
62.42	24.223
62.64	30.279
62.86	2.261
63.08	5.953
63.3	5.63
63.52	0.247
63.74	3.949
63.96	8.215
64.18	3.329
64.4	0.21
64.62	2.793
64.84	10.019
65.06	1.225
65.28	2.208
65.5	0.88
65.72	5.847
65.94	5.618
66.16	1.541
66.38	8.261
66.6	26.932
66.82	19.477
67.04	10.264
67.26	8.946
67.48	6.883
67.7	6.965
67.92	20.963
68.14	8.028
68.36	5.152
68.58	2.126
68.8	0.508
69.02	10.763
69.24	14.249
69.46	17.556
69.68	8.527
69.9	2.406
70.12	3.267
70.34	1.238
70.56	1.355
70.78	5.38
71	11.232
71.22	16.619
71.44	9.526
71.66	4.315
71.88	9.27
72.1	4.334
72.32	7.581
72.54	0.186
72.76	3.656
72.98	4.922
73.2	7.02
73.42	4.283
73.64	5.429
73.86	7.528
74.08	5.349
74.3	4.246
74.52	8.216
74.74	9.908
74.96	2.965
75.18	1.123
75.4	9.632
75.62	6.476
75.84	0.327
76.06	1.86
76.28	1.01
76.5	14.027
76.72	9.995
76.94	0.994
77.16	10.907
77.38	4.738
77.6	5.773
77.82	8.876
78.04	5.311
78.26	3.46
78.48	7.683
78.7	11.881
78.92	2.966
79.14	0.796
79.36	3.936
79.58	10.288
79.8	4.508
80.02	9.701
80.24	0.236
80.46	1.478
80.68	2.407
80.9	3.427
81.12	5.348
81.34	2.312
81.56	7.263
81.78	0.6
82	6.505
82.22	3.474
82.44	1.371
82.66	8.662
82.88	0.858
83.1	1.077
83.32	3.16
83.54	7.499
83.76	4.697
83.98	3.689
84.2	0.209
84.42	5.13
84.64	6.172
84.86	5.161
85.08	3.328
85.3	11.162
85.52	4.936
85.74	8.818
85.96	0.709
86.18	5.608
86.4	20.332
86.62	11.007
86.84	2.359
87.06	0.218
87.28	3.72
87.5	10.052
87.72	3.505
87.94	6.035
88.16	7.415
88.38	1.29
88.6	3.175
88.82	6.957
89.04	8.639
89.26	3.858
89.48	10.735
89.7	1.847
89.92	1.053
