Measurement: Powder, Xray Data XY Processed
Mineral: Libethenite
Rruff sample: R050147
Ideal chemistry: Cu^2+^_2_PO_4_(OH)
Locality: Los Azules mine, Copiapo, Chile
Source: Jim McGlasson
Description: Dark green prismatic crystals, associated with smaller lighter green pseudomalachite
Diffraction sample description: Single crystal, powder profile is calculated
Measured chemistry: Cu_2.00_(P_1.00_O_4_)((OH)_0.89_F_0.11_)_Î£=1_
Cell parameters: a: 7.91(5) b: 8.25(3) c: 5.80(4) alpha: 90 beta: 90 gamma: 90 volume: 378.6(3) crystal system: orthorhombic
x	intensity
5	0
5.22	0
5.44	0
5.66	0
5.88	0
6.1	0
6.32	0
6.54	0
6.76	0
6.98	0
7.2	0
7.42	0
7.64	0
7.86	0
8.08	0
8.3	0
8.52	0
8.74	0
8.96	0
9.18	0
9.4	0
9.62	0
9.84	0
10.06	0
10.28	0
10.5	0
10.72	0
10.94	0
11.16	0
11.38	0
11.6	0
11.82	0
12.04	0
12.26	0
12.48	0
12.7	0
12.92	0
13.14	0
13.36	0
13.58	0
13.8	0
14.02	0
14.24	0
14.46	0
14.68	0
14.9	0
15.12	0
15.34	0
15.56	48.432
15.78	0
16	0
16.22	0
16.44	0
16.66	0
16.88	0
17.1	0
17.32	0
17.54	0
17.76	0
17.98	0
18.2	0
18.42	0
18.64	22.773
18.86	0.18
19.08	0.982
19.3	0
19.52	0
19.74	0
19.96	0
20.18	0
20.4	0
20.62	0
20.84	0
21.06	0
21.28	0
21.5	1.03
21.72	0.003
21.94	0.119
22.16	0
22.38	0.032
22.6	0.014
22.82	0
23.04	0
23.26	0
23.48	0
23.7	0
23.92	0
24.14	0
24.36	31.912
24.58	0
24.8	0
25.02	8.427
25.24	0
25.46	0
25.68	0
25.9	0
26.12	0
26.34	0
26.56	0
26.78	0
27	0
27.22	0
27.44	0
27.66	0
27.88	0
28.1	0
28.32	0
28.54	0
28.76	0.026
28.98	0.013
29.2	0
29.42	0.071
29.64	0
29.86	0
30.08	0
30.3	0
30.52	0
30.74	0.767
30.96	0.194
31.18	0.014
31.4	31.406
31.62	0
31.84	0
32.06	0
32.28	0
32.5	0
32.72	0
32.94	0
33.16	0
33.38	0
33.6	0
33.82	0
34.04	0
34.26	0
34.48	31.338
34.7	42.765
34.92	0.613
35.14	3.333
35.36	0
35.58	0.001
35.8	15.53
36.02	0.114
36.24	4.512
36.46	0
36.68	0
36.9	0
37.12	0
37.34	0.142
37.56	5.087
37.78	0.019
38	16.488
38.22	0
38.44	20.589
38.66	0.099
38.88	0
39.1	5.054
39.32	0
39.54	0.502
39.76	8.422
39.98	0.416
40.2	0.092
40.42	0
40.64	1.357
40.86	0
41.08	0
41.3	0
41.52	0
41.74	0
41.96	0
42.18	0
42.4	0
42.62	0
42.84	0
43.06	0.038
43.28	0
43.5	0
43.72	0
43.94	0.174
44.16	0
44.38	0.016
44.6	4.322
44.82	0
45.04	0
45.26	0
45.48	0.153
45.7	0
45.92	0.193
46.14	0
46.36	0
46.58	0
46.8	0.004
47.02	1.315
47.24	1.226
47.46	0.004
47.68	0.201
47.9	4.211
48.12	1.409
48.34	5.83
48.56	2.926
48.78	0
49	0
49.22	0
49.44	0
49.66	0.018
49.88	3.875
50.1	1.562
50.32	0.003
50.54	0.171
50.76	0
50.98	0
51.2	4
51.42	0.672
51.64	0
51.86	0.798
52.08	0
52.3	0
52.52	0
52.74	0
52.96	0
53.18	0
53.4	0
53.62	0.097
53.84	0.519
54.06	0.003
54.28	0
54.5	5.915
54.72	10.139
54.94	0
55.16	0
55.38	0
55.6	0
55.82	0.01
56.04	0.022
56.26	12.56
56.48	1.101
56.7	0.012
56.92	2.611
57.14	2.92
57.36	0.088
57.58	1.403
57.8	0.132
58.02	4.135
58.24	1.745
58.46	0.928
58.68	0
58.9	0.07
59.12	1.149
59.34	7.784
59.56	4.534
59.78	4.639
60	0.07
60.22	0
60.44	0.579
60.66	0.135
60.88	3.19
61.1	7.813
61.32	0
61.54	0
61.76	4.193
61.98	1.024
62.2	0
62.42	0
62.64	0
62.86	2.888
63.08	0.877
63.3	0.016
63.52	0.001
63.74	0.371
63.96	0.227
64.18	11.146
64.4	3.079
64.62	0
64.84	0
65.06	0.067
65.28	6.739
65.5	6.395
65.72	0
65.94	0.004
66.16	1.965
66.38	0.921
66.6	0.374
66.82	0.427
67.04	0.209
67.26	0.004
67.48	0.067
67.7	0.003
67.92	0
68.14	0.031
68.36	0.893
68.58	0.742
68.8	1.804
69.02	0.793
69.24	0.367
69.46	0.308
69.68	5.02
69.9	2.785
70.12	0.061
70.34	0
70.56	0.105
70.78	0.025
71	0.001
71.22	0
71.44	0.267
71.66	3.811
71.88	1.39
72.1	0.019
72.32	0.001
72.54	0.591
72.76	3.649
72.98	1.567
73.2	2.173
73.42	0.764
73.64	0
73.86	0.119
74.08	0.092
74.3	0.002
74.52	0
74.74	0.02
74.96	4.686
75.18	2.306
75.4	3.572
75.62	3.903
75.84	1.019
76.06	0.006
76.28	0
76.5	0.342
76.72	0.414
76.94	1.038
77.16	1.64
77.38	0.583
77.6	0.001
77.82	0.977
78.04	0.656
78.26	0.035
78.48	0.014
78.7	0.298
78.92	0.586
79.14	0.115
79.36	0.005
79.58	0
79.8	0.524
80.02	0.118
80.24	0.006
80.46	0.038
80.68	0.024
80.9	0.408
81.12	0.51
81.34	0.247
81.56	0
81.78	0
82	0.158
82.22	0.035
82.44	0.005
82.66	0.028
82.88	0.041
83.1	0.58
83.32	0.1
83.54	0.006
83.76	0.242
83.98	0.131
84.2	0.464
84.42	0.085
84.64	0.032
84.86	0.498
85.08	0.261
85.3	0.229
85.52	0.029
85.74	0.008
85.96	0.159
86.18	0.014
86.4	0.383
86.62	0.068
86.84	0.23
87.06	0.022
87.28	0.04
87.5	0
87.72	0.019
87.94	0.238
88.16	0.057
88.38	0.078
88.6	0.027
88.82	0.004
89.04	0.016
89.26	0.034
89.48	0
89.7	0
89.92	0.04
