Measurement: Powder, Xray Data XY Processed
Mineral: Lindgrenite
Rruff sample: R060241
Ideal chemistry: Cu^2+^_3_(Mo^6+^O_4_)_2_(OH)_2_
Locality: San Samuel mine, Carrera Pinto, Chile
Source: Rock Currier
Description: Dark green tabular crystals associated with antlerite, pseudomalachite, albite, dravite and monazite
Diffraction sample description: Single crystal, powder profile is calculated
Measured chemistry: Cu_3.00_(Mo^6+^_1.00_O_4_)_2_((OH)_1.98_Cl_0.02_)_Î£=2_
Cell parameters: a: 5.384(1) b: 13.969(3) c: 5.591(1) alpha: 90 beta: 98.57(1) gamma: 90 volume: 415.8(1) crystal system: monoclinic
x	intensity
5	0
5.22	0
5.44	0
5.66	0
5.88	0
6.1	0
6.32	0
6.54	0
6.76	0
6.98	0
7.2	0
7.42	0
7.64	0
7.86	0
8.08	0
8.3	0
8.52	0
8.74	0
8.96	0
9.18	0
9.4	0
9.62	0
9.84	0
10.06	0
10.28	0
10.5	0
10.72	0
10.94	0
11.16	0
11.38	0
11.6	0
11.82	0
12.04	0
12.26	0
12.48	0
12.7	18.409
12.92	0
13.14	0
13.36	0
13.58	0
13.8	0
14.02	0
14.24	0
14.46	0
14.68	0
14.9	0
15.12	0
15.34	0
15.56	0
15.78	0
16	0
16.22	0
16.44	0
16.66	0
16.88	0
17.1	0
17.32	0.668
17.54	0
17.76	0.986
17.98	0
18.2	0
18.42	0
18.64	0
18.86	0
19.08	0
19.3	0
19.52	0
19.74	0
19.96	0
20.18	0
20.4	1.937
20.62	0.06
20.84	0
21.06	0.825
21.28	1.41
21.5	0.307
21.72	0
21.94	0
22.16	0
22.38	0.601
22.6	0
22.82	0
23.04	0
23.26	0
23.48	0
23.7	0
23.92	0
24.14	0
24.36	0
24.58	0
24.8	0.975
25.02	4.381
25.24	0
25.46	76.556
25.68	73.661
25.9	0
26.12	0
26.34	0
26.56	0
26.78	0
27	0
27.22	0
27.44	0
27.66	0
27.88	0.003
28.1	1.629
28.32	0
28.54	0
28.76	5.763
28.98	0
29.2	0
29.42	0
29.64	0
29.86	0
30.08	0
30.3	8.025
30.52	0.593
30.74	0.241
30.96	0
31.18	0
31.4	0.023
31.62	3.456
31.84	0
32.06	0
32.28	0.709
32.5	1.861
32.72	0
32.94	2.521
33.16	0.906
33.38	0.106
33.6	21.113
33.82	0.119
34.04	0
34.26	7.376
34.48	0.001
34.7	0
34.92	2.833
35.14	0
35.36	0
35.58	0
35.8	7.494
36.02	11.607
36.24	0.053
36.46	0
36.68	8.645
36.9	0
37.12	0
37.34	0
37.56	7.929
37.78	0.407
38	0.013
38.22	0
38.44	0
38.66	1.052
38.88	1.11
39.1	0.18
39.32	0.649
39.54	6.231
39.76	0
39.98	0
40.2	1.971
40.42	0.158
40.64	0
40.86	0.148
41.08	3.811
41.3	0
41.52	0.001
41.74	0.334
41.96	0.149
42.18	2.349
42.4	0.109
42.62	0.066
42.84	0.038
43.06	0.024
43.28	0.617
43.5	5.338
43.72	0.043
43.94	1.623
44.16	0.368
44.38	0.028
44.6	0.57
44.82	0
45.04	0
45.26	0
45.48	0.029
45.7	0.001
45.92	0
46.14	4.188
46.36	0.16
46.58	0.138
46.8	0
47.02	9.812
47.24	1.101
47.46	0
47.68	1.022
47.9	6.836
48.12	0.018
48.34	0.611
48.56	4.824
48.78	1.594
49	0
49.22	0
49.44	0
49.66	0
49.88	2.018
50.1	0.025
50.32	2.859
50.54	0.03
50.76	1.468
50.98	0.072
51.2	1.696
51.42	4.153
51.64	1.714
51.86	1.402
52.08	1.691
52.3	4.481
52.52	1.199
52.74	0.962
52.96	0.403
53.18	0.955
53.4	13.175
53.62	2.693
53.84	0.609
54.06	0.043
54.28	0
54.5	0
54.72	0
54.94	2.164
55.16	3.305
55.38	6.099
55.6	1.312
55.82	0.001
56.04	0.016
56.26	0
56.48	0.317
56.7	0.805
56.92	1.551
57.14	5.079
57.36	2.136
57.58	0.001
57.8	0.888
58.02	3.261
58.24	1.24
58.46	2.726
58.68	4.954
58.9	2.204
59.12	2.921
59.34	0
59.56	1.344
59.78	0.559
60	1.18
60.22	0.896
60.44	2.967
60.66	2.087
60.88	0.108
61.1	1.054
61.32	0.077
61.54	0.545
61.76	0.053
61.98	0.491
62.2	1.964
62.42	2.905
62.64	0
62.86	0.2
63.08	0.239
63.3	0.011
63.52	0
63.74	0.314
63.96	1.5
64.18	0.944
64.4	0.491
64.62	1.487
64.84	4.027
65.06	0.339
65.28	0.066
65.5	0.246
65.72	0.093
65.94	0.018
66.16	0.053
66.38	1.067
66.6	0.901
66.82	1.103
67.04	4.193
67.26	3.461
67.48	0.085
67.7	4.74
67.92	3.537
68.14	0.833
68.36	0.19
68.58	0
68.8	0.119
69.02	0.495
69.24	3.172
69.46	2.134
69.68	0.554
69.9	0.359
70.12	0.218
70.34	1.07
70.56	3.217
70.78	1.235
71	0.78
71.22	0.741
71.44	0.152
71.66	0.7
71.88	0.351
72.1	0.02
72.32	0.014
72.54	0.184
72.76	0.139
72.98	0
73.2	0.002
73.42	0.38
73.64	1.735
73.86	0.728
74.08	0.019
74.3	0.517
74.52	0.248
74.74	0.202
74.96	0.138
75.18	0.133
75.4	0.799
75.62	0.374
75.84	0.515
76.06	0.344
76.28	1.393
76.5	3.464
76.72	3.355
76.94	1.022
77.16	1.221
77.38	2.973
77.6	1.291
77.82	0.386
78.04	0.129
78.26	0.001
78.48	0
78.7	0.276
78.92	0.19
79.14	0.526
79.36	0.259
79.58	0.006
79.8	0.377
80.02	0.312
80.24	0.059
80.46	2.48
80.68	1.018
80.9	0.258
81.12	0.345
81.34	0.259
81.56	0.21
81.78	0.01
82	0.109
82.22	0.098
82.44	0.121
82.66	0.037
82.88	0.676
83.1	0.775
83.32	0.488
83.54	0.506
83.76	0.766
83.98	0.284
84.2	0.592
84.42	1.543
84.64	0.868
84.86	0.231
85.08	0.832
85.3	0.579
85.52	0.64
85.74	0.33
85.96	0.127
86.18	0.061
86.4	0.285
86.62	0.049
86.84	0.614
87.06	2.14
87.28	1.868
87.5	0.294
87.72	0.09
87.94	0.618
88.16	0.552
88.38	0.252
88.6	0.501
88.82	0.413
89.04	0.691
89.26	2.132
89.48	0.677
89.7	0.966
89.92	0.404
