Measurement: Powder, Xray Data XY Processed
Mineral: Liroconite
Rruff sample: R050535
Ideal chemistry: Cu^2+^_2_AlAs^5+^O_4_(OH)_4_4H_2_O
Locality: Wheal Gorland, St. Day, Cornwall, England
Source: University of Arizona Mineral Museum
Description: Blue tabular crystals
Diffraction sample description: Powder
Cell parameters: a: 12.6647(4) b: 7.5839(6) c: 9.9041(8) alpha: 90. beta: 91.186(3) gamma: 90. volume: 951.07(7) crystal system: monoclinic
x	intensity
5	0
5.22	6.1428
5.44	25.575
5.66	7.20897
5.88	7.41458
6.1	13.2485
6.32	4.02589
6.54	14.3737
6.76	21.435
6.98	21.4278
7.2	18.4498
7.42	7.0056
7.64	17.4837
7.86	1.15721
8.08	13.2678
8.3	13.7416
8.52	25.0972
8.74	8.43393
8.96	2.98037
9.18	1.39999
9.4	22.1114
9.62	16.9591
9.84	6.42522
10.06	15.5196
10.28	9.86666
10.5	1.38578
10.72	16.4609
10.94	8.55233
11.16	22.3292
11.38	20.3223
11.6	9.88026
11.82	19.9726
12.04	31.7236
12.26	22.0992
12.48	17.2067
12.7	16.6506
12.92	6.85503
13.14	4.33144
13.36	70.7677
13.58	340.338
13.8	107.278
14.02	54.2728
14.24	1.09047
14.46	17.4253
14.68	173.973
14.9	87.8243
15.12	7.9325
15.34	3.713
15.56	13.2268
15.78	2.1815
16	12.5458
16.22	17.814
16.44	16.3721
16.66	8.37916
16.88	14.0277
17.1	7.65093
17.32	6.55967
17.54	20.9142
17.76	16.2847
17.98	14.5474
18.2	3.92698
18.42	15.16
18.64	9.33782
18.86	2.09459
19.08	22.4957
19.3	13.873
19.52	25.5851
19.74	7.89204
19.96	8.47036
20.18	26.3368
20.4	17.9467
20.62	37.9731
20.84	3.72435
21.06	3.41313
21.28	4.27667
21.5	15.138
21.72	21.0529
21.94	2.6466
22.16	22.1213
22.38	9.12955
22.6	73.3087
22.82	258.361
23.04	9.90285
23.26	23.9148
23.48	18.0019
23.7	27.2582
23.92	1.61851
24.14	105.322
24.36	16.7166
24.58	16.1285
24.8	6.09751
25.02	10.2876
25.24	21.6046
25.46	10.7496
25.68	11.4536
25.9	24.5736
26.12	24.1064
26.34	89.2924
26.56	15.2471
26.78	27.159
27	3.78309
27.22	18.1445
27.44	10.5257
27.66	1.14661
27.88	13.6603
28.1	31.1123
28.32	6.43279
28.54	7.18005
28.76	12.366
28.98	5.57976
29.2	18.1829
29.42	34.5925
29.64	317.505
29.86	229.277
30.08	74.1488
30.3	5.64091
30.52	56.6209
30.74	11.0209
30.96	1.6034
31.18	3.40737
31.4	7.50619
31.62	15.5258
31.84	119.043
32.06	43.701
32.28	126.7
32.5	27.4944
32.72	90.0091
32.94	85.7076
33.16	279.284
33.38	298.392
33.6	18.2076
33.82	11.2803
34.04	147.013
34.26	3.7039
34.48	9.34349
34.7	0.283997
34.92	2.17307
35.14	4.44344
35.36	9.17446
35.58	23.7354
35.8	12.5137
36.02	23.6587
36.24	51.8034
36.46	44.7261
36.68	4.83716
36.9	34.2521
37.12	63.626
37.34	1.40726
37.56	6.80574
37.78	1.55292
38	10.8771
38.22	21.5747
38.44	11.0687
38.66	14.354
38.88	45.639
39.1	17.3647
39.32	59.3025
39.54	106.641
39.76	15.9652
39.98	6.46054
40.2	26.8885
40.42	1.05884
40.64	25.1684
40.86	141.561
41.08	6.19663
41.3	19.0718
41.52	18.6807
41.74	100.56
41.96	21.8132
42.18	74.4949
42.4	12.2291
42.62	4.95491
42.84	13.6463
43.06	1.32482
43.28	13.8112
43.5	20.2707
43.72	157.08
43.94	59.7539
44.16	41.7146
44.38	15.5609
44.6	8.87841
44.82	6.08845
45.04	10.7922
45.26	22.6246
45.48	3.20792
45.7	4.83993
45.92	34.4005
46.14	4.22115
46.36	22.1129
46.58	20.1083
46.8	39.7419
47.02	12.6724
47.24	21.8252
47.46	31.7182
47.68	34.1981
47.9	16.8224
48.12	21.748
48.34	25.3155
48.56	10.4308
48.78	3.36654
49	11.6483
49.22	7.02942
49.44	7.37852
49.66	19.7505
49.88	20.1609
50.1	32.6508
50.32	14.3633
50.54	7.86585
50.76	15.6254
50.98	39.0197
51.2	30.0986
51.42	26.7488
51.64	34.3643
51.86	9.03219
52.08	10.0151
52.3	89.6136
52.52	126.463
52.74	11.4349
52.96	15.4618
53.18	5.48224
53.4	39.4691
53.62	33.8741
53.84	72.6993
54.06	12.9495
54.28	25.318
54.5	16.7783
54.72	25.5962
54.94	7.29757
55.16	6.77423
55.38	15.5585
55.6	20.6219
55.82	5.91552
56.04	36.7322
56.26	11.9658
56.48	0.505188
56.7	31.6463
56.92	13.3945
57.14	7.43625
57.36	27.5081
57.58	54.5095
57.8	21.548
58.02	27.3131
58.24	25.4521
58.46	34.1075
58.68	11.4513
58.9	20.1818
59.12	6.52093
59.34	53.3366
59.56	27.0056
59.78	23.658
60	38.6442
60.22	43.6417
60.44	13.0751
60.66	22.0612
60.88	17.1336
61.1	26.034
61.32	39.79
61.54	25.0802
61.76	36.5137
61.98	44.4166
62.2	13.8371
62.42	6.66525
62.64	6.03886
62.86	8.92078
63.08	21.7479
63.3	38.583
63.52	28.6571
63.74	32.4033
63.96	12.0003
64.18	15.5514
64.4	20.8592
64.62	12.7695
64.84	27.8024
65.06	4.967
65.28	8.28616
65.5	19.46
65.72	7.42562
65.94	24.6351
66.16	8.35321
66.38	34.011
66.6	36.7954
66.82	12.0709
67.04	8.4912
67.26	39.0122
67.48	26.6119
67.7	20.3629
67.92	19.0677
68.14	19.1443
68.36	23.9968
68.58	6.43716
68.8	24.1055
69.02	20.871
69.24	12.9025
69.46	6.72289
69.68	19.8048
69.9	49.7483
70.12	42.4612
70.34	34.3761
70.56	7.35506
70.78	9.91771
71	13.751
71.22	13.9499
71.44	38.3348
71.66	11.6424
71.88	4.20655
72.1	6.02374
72.32	11.2844
72.54	30.2692
72.76	30.22
72.98	18.6099
73.2	13.6386
73.42	29.8157
73.64	4.78671
73.86	27.8343
74.08	10.6242
74.3	22.8454
74.52	30.0823
74.74	1.67326
74.96	35.6558
75.18	22.765
75.4	23.8506
75.62	10.2146
75.84	31.6105
76.06	19.326
76.28	20.8503
76.5	17.3771
76.72	10.0774
76.94	7.28327
77.16	26.8087
77.38	7.45436
77.6	11.0842
77.82	1.66419
78.04	13.9078
78.26	26.2838
78.48	12.7197
78.7	34.7185
78.92	18.9407
79.14	22.1827
79.36	9.05104
79.58	21.8165
79.8	8.87109
80.02	13.4238
80.24	28.8698
80.46	19.7022
80.68	15.4072
80.9	8.82047
81.12	28.0561
81.34	24.4272
81.56	12.5276
81.78	18.243
82	42.263
82.22	8.40132
82.44	14.3032
82.66	15.2729
82.88	7.5795
83.1	16.6449
83.32	21.1072
83.54	24.9561
83.76	26.4713
83.98	30.6017
84.2	18.5414
84.42	20.2415
84.64	15.8349
84.86	18.9941
85.08	23.1525
85.3	17.2943
85.52	1.98368
85.74	19.3458
85.96	14.4965
86.18	25.558
86.4	33.508
86.62	14.0852
86.84	13.8606
87.06	6.61925
87.28	25.5851
87.5	0.916168
87.72	10.5499
87.94	19.8845
88.16	15.073
88.38	9.49135
88.6	10.6032
88.82	27.4866
89.04	14.3716
89.26	28.7299
89.48	10.2662
89.7	19.2293
89.92	11.0232
