Measurement: Powder, Xray Data XY Processed
Mineral: Lollingite
Rruff sample: R060185
Ideal chemistry: FeAs_2_
Locality: MW Claim, Seagull Batholith, Cassiar Mountains, Yukon, Canada
Source: Lloyd Twaites
Description: Steel-gray metallic fragments
Diffraction sample description: Powder
Measured chemistry: Fe_1.00_(As_1.90_S_0.10_)_Î£=2_
Cell parameters: a: 5.2698(6) b: 5.9653(5) c: 2.9020(2) alpha: 90 beta: 90 gamma: 90 volume: 91.23(1) crystal system: orthorhombic
x	intensity
5	0
5.22	29.8099
5.44	11.7223
5.66	13.406
5.88	28.0822
6.1	3.78474
6.32	16.5961
6.54	8.37786
6.76	5.06033
6.98	13.5878
7.2	7.25639
7.42	2.26834
7.64	5.06457
7.86	2.31047
8.08	25.2238
8.3	8.46436
8.52	0.685104
8.74	3.81234
8.96	14.0266
9.18	25.3561
9.4	15.1231
9.62	0.584759
9.84	12.128
10.06	16.485
10.28	2.25023
10.5	9.28706
10.72	14.9331
10.94	8.94289
11.16	8.99744
11.38	17.7643
11.6	20.8685
11.82	10.3564
12.04	16.2217
12.26	6.85402
12.48	20.8648
12.7	9.11304
12.92	16.1094
13.14	0.256615
13.36	12.3394
13.58	11.1988
13.8	8.30228
14.02	1.13747
14.24	14.8187
14.46	11.6072
14.68	15.3084
14.9	3.05971
15.12	13.7609
15.34	1.7297
15.56	15.3969
15.78	3.11373
16	10.1185
16.22	19.3504
16.44	0.337067
16.66	3.53519
16.88	6.76248
17.1	3.14879
17.32	7.5873
17.54	8.64502
17.76	8.57738
17.98	12.222
18.2	13.0506
18.42	15.9223
18.64	21.3222
18.86	21.0863
19.08	14.371
19.3	14.0234
19.52	3.3201
19.74	13.2408
19.96	19.1387
20.18	21.0007
20.4	9.15941
20.62	8.96867
20.84	4.83941
21.06	9.123
21.28	22.028
21.5	3.4914
21.72	7.82069
21.94	17.0157
22.16	0.959072
22.38	0.007908
22.6	14.9793
22.82	10.4449
23.04	11.2461
23.26	2.11214
23.48	23.3553
23.7	11.912
23.92	1.74827
24.14	3.95517
24.36	0.464165
24.58	19.5356
24.8	11.2217
25.02	16.579
25.24	7.00156
25.46	5.24116
25.68	11.8325
25.9	7.03521
26.12	6.99312
26.34	9.18724
26.56	1.87048
26.78	19.0553
27	7.89139
27.22	16.8521
27.44	12.3479
27.66	11.6648
27.88	11.1528
28.1	1.72357
28.32	15.6655
28.54	30.2294
28.76	2.0172
28.98	15.8528
29.2	0.295448
29.42	1.21795
29.64	25.5236
29.86	17.8195
30.08	20.4405
30.3	21.2339
30.52	17.9163
30.74	17.7699
30.96	6.77482
31.18	4.77791
31.4	5.38638
31.62	1.18801
31.84	13.9372
32.06	8.92234
32.28	17.4805
32.5	13.407
32.72	17.1681
32.94	14.5014
33.16	9.7711
33.38	6.64141
33.6	11.0432
33.82	20.1807
34.04	12.295
34.26	22.4942
34.48	55.9083
34.7	79.7461
34.92	25.2486
35.14	20.2219
35.36	186.326
35.58	17.1641
35.8	6.74433
36.02	0.644417
36.24	4.74313
36.46	5.08379
36.68	0.936607
36.9	22.6899
37.12	6.8794
37.34	93.776
37.56	10.6021
37.78	2.58609
38	9.15531
38.22	29.9151
38.44	71.6865
38.66	99.7562
38.88	25.0387
39.1	7.01165
39.32	8.9259
39.54	15.0431
39.76	19.3531
39.98	2.09013
40.2	22.1829
40.42	15.5742
40.64	5.35983
40.86	21.9007
41.08	10.2742
41.3	8.58663
41.52	1.64936
41.74	1.28938
41.96	19.8108
42.18	16.4227
42.4	14.2787
42.62	19.3888
42.84	14.2082
43.06	11.6968
43.28	4.517
43.5	4.37553
43.72	23.969
43.94	6.11846
44.16	12.2139
44.38	34.3557
44.6	9.13926
44.82	13.1585
45.04	25.1833
45.26	32.4074
45.48	25.1412
45.7	19.7505
45.92	14.6685
46.14	23.6077
46.36	4.6919
46.58	15.7529
46.8	11.7591
47.02	25.5487
47.24	4.78386
47.46	0.353336
47.68	15.9186
47.9	3.52559
48.12	0.209972
48.34	32.8689
48.56	4.0862
48.78	7.95176
49	68.7103
49.22	65.3212
49.44	18.7089
49.66	5.01249
49.88	11.8359
50.1	6.68991
50.32	24.0098
50.54	25.6222
50.76	13.9977
50.98	6.94293
51.2	5.63913
51.42	6.80211
51.64	1.04893
51.86	6.26814
52.08	13.1957
52.3	13.1917
52.52	10.6826
52.74	14.7688
52.96	26.0153
53.18	4.1421
53.4	9.67308
53.62	20.8052
53.84	2.51362
54.06	8.16775
54.28	15.4209
54.5	63.2706
54.72	9.98183
54.94	6.10299
55.16	13.0445
55.38	2.1981
55.6	6.77399
55.82	8.48255
56.04	105.621
56.26	104.375
56.48	64.5178
56.7	24.9912
56.92	15.4815
57.14	1.68901
57.36	24.6406
57.58	10.9176
57.8	4.98076
58.02	11.0443
58.24	16.5367
58.46	18.6389
58.68	8.95545
58.9	28.4279
59.12	26.9319
59.34	11.5512
59.56	33.6786
59.78	13.1107
60	13.4003
60.22	27.2749
60.44	9.07812
60.66	18.928
60.88	13.8414
61.1	7.53515
61.32	6.91298
61.54	20.0715
61.76	23.6503
61.98	18.7258
62.2	6.22843
62.42	8.69177
62.64	4.72416
62.86	14.6546
63.08	3.50407
63.3	4.26696
63.52	7.86571
63.74	6.82916
63.96	10.7262
64.18	33.3067
64.4	4.26867
64.62	6.88066
64.84	18.2256
65.06	0.353554
65.28	5.67509
65.5	19.9554
65.72	18.8531
65.94	0.702297
66.16	13.3163
66.38	6.02915
66.6	18.8965
66.82	5.73911
67.04	9.22692
67.26	12.1648
67.48	5.63908
67.7	0.498508
67.92	27.4333
68.14	6.99766
68.36	17.7381
68.58	0.852554
68.8	4.41079
69.02	11.2041
69.24	18.2243
69.46	17.1778
69.68	10.5391
69.9	9.75465
70.12	28.7473
70.34	14.3797
70.56	4.54036
70.78	16.3082
71	10.0162
71.22	23.2229
71.44	22.3933
71.66	14.4546
71.88	7.23153
72.1	20.773
72.32	4.38508
72.54	11.8587
72.76	17.1016
72.98	11.2527
73.2	13.1564
73.42	12.8558
73.64	16.1344
73.86	21.6347
74.08	8.23813
74.3	0.175953
74.52	17.4608
74.74	6.64646
74.96	34.6636
75.18	14.0493
75.4	1.805
75.62	20.762
75.84	10.8747
76.06	22.1811
76.28	8.44082
76.5	16.8464
76.72	27.2325
76.94	32.8481
77.16	19.5677
77.38	6.96238
77.6	0.214161
77.82	19.819
78.04	1.00182
78.26	4.0807
78.48	0.624123
78.7	7.9544
78.92	3.8456
79.14	7.75671
79.36	12.3855
79.58	12.2425
79.8	13.9683
80.02	13.0796
80.24	1.47625
80.46	23.2392
80.68	9.17595
80.9	14.2567
81.12	14.1704
81.34	9.81541
81.56	21.8554
81.78	2.09334
82	3.10481
82.22	23.6485
82.44	7.23262
82.66	7.53768
82.88	14.0552
83.1	22.2296
83.32	15.3844
83.54	28.3951
83.76	18.6677
83.98	3.64641
84.2	18.9425
84.42	17.8477
84.64	22.3879
84.86	13.6617
85.08	19.8137
85.3	3.43937
85.52	23.5807
85.74	12.6766
85.96	22.4365
86.18	15.2717
86.4	16.1551
86.62	9.07066
86.84	1.80834
87.06	16.2398
87.28	5.51799
87.5	31.3584
87.72	23.0416
87.94	24.6073
88.16	1.44462
88.38	16.4616
88.6	25.3158
88.82	24.0034
89.04	22.7585
89.26	39.2764
89.48	20.0093
89.7	9.84528
89.92	12.0981
