Measurement: Powder, Xray Data XY Processed
Mineral: Lopezite
Rruff sample: R070043
Ideal chemistry: K_2_Cr^6+^_2_O_7_
Locality: Synthetic, made in the Czech Republic
Source: Michael Scott
Description: Red single crystal
Diffraction sample description: Single crystal, powder profile is calculated
Measured chemistry: K_1.93_Cr_2.01_O_7_
Cell parameters: a: 7.421(1) b: 13.370(4) c: 7.360(3) alpha: 98.03(2) beta: 90.75(2) gamma: 96.29(1) volume: 718.4(3) crystal system: triclinic
x	intensity
5	0
5.22	0
5.44	0
5.66	0
5.88	0
6.1	0
6.32	0
6.54	0
6.76	0.033
6.98	0
7.2	0
7.42	0
7.64	0
7.86	0
8.08	0
8.3	0
8.52	0
8.74	0
8.96	0
9.18	0
9.4	0
9.62	0
9.84	0
10.06	0
10.28	0
10.5	0
10.72	0
10.94	0
11.16	0
11.38	0
11.6	0
11.82	0
12.04	0.19
12.26	0
12.48	0
12.7	0
12.92	0.605
13.14	1.562
13.36	1.826
13.58	0
13.8	0
14.02	0
14.24	0
14.46	0.539
14.68	11.008
14.9	0
15.12	0
15.34	0
15.56	0
15.78	0
16	0
16.22	0
16.44	0
16.66	0.002
16.88	1.086
17.1	0
17.32	6.483
17.54	2.304
17.76	0
17.98	5.939
18.2	11.147
18.42	0.002
18.64	0
18.86	0
19.08	0.886
19.3	0.062
19.52	0
19.74	14.808
19.96	9.396
20.18	0.042
20.4	0
20.62	0
20.84	0
21.06	0
21.28	2.169
21.5	0
21.72	0.007
21.94	0.013
22.16	0
22.38	0
22.6	0
22.82	0
23.04	0
23.26	0
23.48	0
23.7	0.008
23.92	1.404
24.14	22.372
24.36	63.832
24.58	0.002
24.8	0.077
25.02	0.183
25.24	0
25.46	0
25.68	0.253
25.9	9.786
26.12	17.106
26.34	23.178
26.56	0.005
26.78	12.374
27	67.509
27.22	32.488
27.44	2.137
27.66	3.762
27.88	6.405
28.1	4.031
28.32	0.012
28.54	2.85
28.76	0
28.98	2.861
29.2	16.082
29.42	6.208
29.64	14.66
29.86	31.974
30.08	0
30.3	0
30.52	5.212
30.74	0
30.96	0.735
31.18	22.257
31.4	13.006
31.62	0.131
31.84	0
32.06	0
32.28	0.147
32.5	6.358
32.72	0.002
32.94	0.744
33.16	3.195
33.38	3.141
33.6	0
33.82	0.276
34.04	10.438
34.26	0.861
34.48	10.524
34.7	0.043
34.92	6.391
35.14	0.634
35.36	5.845
35.58	6.784
35.8	0
36.02	0
36.24	0.001
36.46	5.016
36.68	0.033
36.9	5.598
37.12	0.366
37.34	0.562
37.56	2.39
37.78	12.529
38	0.04
38.22	0.313
38.44	1.844
38.66	3.743
38.88	0.027
39.1	2.238
39.32	5.843
39.54	0.606
39.76	1.305
39.98	1.943
40.2	3.138
40.42	1.43
40.64	1.884
40.86	0.002
41.08	0.304
41.3	2.704
41.52	0.314
41.74	0.422
41.96	1.439
42.18	0.859
42.4	8.617
42.62	0.43
42.84	0.237
43.06	0.033
43.28	0.008
43.5	2.725
43.72	0.197
43.94	7.743
44.16	5.765
44.38	15.132
44.6	2.095
44.82	1.754
45.04	5.007
45.26	2.177
45.48	0.016
45.7	2.502
45.92	1.637
46.14	0.23
46.36	5.176
46.58	0.003
46.8	3.49
47.02	2.826
47.24	0.007
47.46	0.002
47.68	3.874
47.9	2.379
48.12	0.372
48.34	1.719
48.56	1.164
48.78	8.035
49	3.179
49.22	0.234
49.44	1.28
49.66	0.992
49.88	5.534
50.1	0.458
50.32	0.049
50.54	0.465
50.76	2.715
50.98	0.076
51.2	3.886
51.42	5.105
51.64	4.545
51.86	7.308
52.08	1.083
52.3	2.424
52.52	0.773
52.74	0.602
52.96	1.91
53.18	2.041
53.4	0.406
53.62	7.443
53.84	1.196
54.06	0.476
54.28	2.022
54.5	0.086
54.72	2.758
54.94	1.31
55.16	1.604
55.38	2.982
55.6	3.487
55.82	1.518
56.04	0.458
56.26	0.662
56.48	0.954
56.7	0.6
56.92	0.643
57.14	1.774
57.36	0.316
57.58	0.062
57.8	1.488
58.02	2.584
58.24	0.966
58.46	1.277
58.68	1.274
58.9	0.13
59.12	0.826
59.34	1.551
59.56	2.729
59.78	1.593
60	1.595
60.22	0.297
60.44	1.015
60.66	1.221
60.88	0.127
61.1	1.447
61.32	0.863
61.54	0.34
61.76	0.446
61.98	0.925
62.2	0.192
62.42	1.459
62.64	1.426
62.86	1.449
63.08	0.37
63.3	3.157
63.52	1.824
63.74	0.482
63.96	0.56
64.18	0.598
64.4	4.523
64.62	2.03
64.84	1.13
65.06	1.211
65.28	0.859
65.5	0.552
65.72	2.808
65.94	3.358
66.16	1.577
66.38	4.326
66.6	1.84
66.82	0.728
67.04	0.314
67.26	0.219
67.48	0.475
67.7	1.523
67.92	0.94
68.14	0.961
68.36	0.625
68.58	0.786
68.8	1.404
69.02	0.616
69.24	0.051
69.46	3.704
69.68	2.275
69.9	0.451
70.12	0.541
70.34	0.231
70.56	0.182
70.78	0.225
71	0.219
71.22	0.155
71.44	0.434
71.66	1.595
71.88	1.101
72.1	0.239
72.32	2.396
72.54	1.118
72.76	0.145
72.98	0.633
73.2	0.821
73.42	0.237
73.64	1.095
73.86	0.637
74.08	0.283
74.3	1.417
74.52	0.746
74.74	0.114
74.96	0.257
75.18	0.353
75.4	0.387
75.62	0.594
75.84	0.385
76.06	0.841
76.28	0.412
76.5	1.202
76.72	0.754
76.94	0.173
77.16	0.712
77.38	0.909
77.6	1.408
77.82	2.276
78.04	0.829
78.26	1.421
78.48	1.778
78.7	2.238
78.92	1.066
79.14	0.136
79.36	0.171
79.58	0.479
79.8	0.674
80.02	0.694
80.24	0.408
80.46	0.25
80.68	1.55
80.9	1.598
81.12	0.748
81.34	0.242
81.56	0.79
81.78	0.726
82	0.877
82.22	0.819
82.44	0.133
82.66	0.565
82.88	0.563
83.1	0.24
83.32	1.275
83.54	1.058
83.76	0.673
83.98	0.275
84.2	0.338
84.42	0.553
84.64	1.082
84.86	1.118
85.08	0.33
85.3	0.464
85.52	0.425
85.74	0.233
85.96	0.314
86.18	0.436
86.4	0.187
86.62	0.118
86.84	0.143
87.06	0.197
87.28	0.395
87.5	0.067
87.72	1.473
87.94	0.444
88.16	0.366
88.38	1.634
88.6	0.846
88.82	0.363
89.04	0.728
89.26	0.732
89.48	0.489
89.7	0.533
89.92	0.199
