Measurement: Powder, Xray Data XY Processed
Mineral: Lorenzenite
Rruff sample: R060960
Ideal chemistry: Na_2_Ti^4+^_2_O_3_(Si_2_O_6_)
Locality: Khibiny Massif, Kola Peninsula, Russia
Source: Michael Scott
Description: Dark brown prismatic single crystal
Diffraction sample description: Powder
Measured chemistry: Na_2.00_(Ti_1.93_Nb^5+^_0.04_Fe^3+^_0.03_)_Σ=2_O_3_((Si_1.99_Al_0.01_)_Σ=2_O_6_) ; trace amounts of Ca
Cell parameters: a: 8.7041(3) b: 5.2314(4) c: 14.4877(3) alpha: 90 beta: 90 gamma: 90 volume: 659.70(4) crystal system: orthorhombic
x	intensity
5	0
5.22	11.5156
5.44	8.21977
5.66	4.84096
5.88	9.01487
6.1	19.2471
6.32	16.7346
6.54	5.75868
6.76	4.38668
6.98	7.51156
7.2	13.1078
7.42	9.67249
7.64	8.36359
7.86	3.87196
8.08	9.55875
8.3	8.98987
8.52	8.2886
8.74	6.6048
8.96	5.91001
9.18	1.77569
9.4	4.67184
9.62	0.025736
9.84	5.29098
10.06	8.47236
10.28	8.51436
10.5	7.11524
10.72	2.27786
10.94	3.43143
11.16	7.51236
11.38	9.77962
11.6	0.858116
11.82	3.81197
12.04	2.7041
12.26	7.72584
12.48	5.76262
12.7	3.72874
12.92	4.38464
13.14	4.70662
13.36	4.86722
13.58	4.79315
13.8	7.05688
14.02	4.28169
14.24	9.6554
14.46	1.72679
14.68	5.68044
14.9	3.20574
15.12	8.95505
15.34	5.9184
15.56	11.8783
15.78	10.8958
16	152.199
16.22	0.026177
16.44	1.94692
16.66	1.83066
16.88	2.85151
17.1	4.95328
17.32	5.03134
17.54	2.04896
17.76	4.21151
17.98	4.97742
18.2	0.044612
18.42	7.12537
18.64	2.13233
18.86	8.11483
19.08	2.03565
19.3	5.01031
19.52	1.06502
19.74	6.90217
19.96	2.78951
20.18	3.72133
20.4	18.6964
20.62	0.385195
20.84	8.59236
21.06	6.59924
21.28	2.75114
21.5	4.83429
21.72	1.99584
21.94	0.997971
22.16	15.1267
22.38	7.18236
22.6	3.16334
22.82	3.16152
23.04	5.097
23.26	2.96515
23.48	5.0168
23.7	7.83407
23.92	13.889
24.14	6.19512
24.36	12.2713
24.58	8.06995
24.8	0.273713
25.02	4.31093
25.24	0.401916
25.46	0.248466
25.68	7.00343
25.9	2.74266
26.12	11.582
26.34	2.85847
26.56	26.706
26.78	93.4526
27	2.22935
27.22	8.87811
27.44	7.02337
27.66	3.03066
27.88	8.4952
28.1	14.6535
28.32	2.80871
28.54	2.90709
28.76	5.19442
28.98	0.404518
29.2	2.54662
29.42	71.7088
29.64	5.82855
29.86	4.89303
30.08	0.84701
30.3	0.587003
30.52	7.62674
30.74	4.65511
30.96	0.197686
31.18	6.57615
31.4	2.49808
31.62	5.45483
31.84	6.40706
32.06	8.41785
32.28	5.25092
32.5	35.5015
32.72	24.5685
32.94	12.534
33.16	3.41804
33.38	2.51056
33.6	2.86694
33.82	2.95201
34.04	5.90993
34.26	0.230186
34.48	4.73289
34.7	0.833008
34.92	1.20946
35.14	9.01256
35.36	9.99468
35.58	7.78753
35.8	2.60756
36.02	14.0868
36.24	7.04854
36.46	3.0466
36.68	35.1179
36.9	9.15781
37.12	1.43853
37.34	10.8944
37.56	18.9841
37.78	3.20738
38	1.63115
38.22	1.04621
38.44	3.43213
38.66	4.61573
38.88	2.73384
39.1	2.7197
39.32	4.67073
39.54	4.44412
39.76	8.28494
39.98	2.274
40.2	9.21558
40.42	10.0046
40.64	14.9119
40.86	4.95974
41.08	4.93627
41.3	7.13122
41.52	12.3326
41.74	2.40647
41.96	3.50428
42.18	1.53668
42.4	6.53864
42.62	2.57946
42.84	4.67918
43.06	1.34794
43.28	3.42807
43.5	7.44154
43.72	15.5184
43.94	7.65542
44.16	3.67238
44.38	2.61318
44.6	1.53846
44.82	5.46641
45.04	1.55431
45.26	2.28595
45.48	2.18453
45.7	13.9214
45.92	4.72173
46.14	1.51988
46.36	10.2948
46.58	6.15485
46.8	21.2579
47.02	4.25703
47.24	0.312313
47.46	6.26653
47.68	12.3584
47.9	2.31455
48.12	4.75217
48.34	5.891
48.56	15.1051
48.78	5.9759
49	2.0475
49.22	18.9326
49.44	6.99906
49.66	4.20748
49.88	9.2913
50.1	4.21795
50.32	6.89076
50.54	13.8044
50.76	1.64458
50.98	2.30194
51.2	3.10276
51.42	2.02643
51.64	6.09448
51.86	1.08415
52.08	10.8655
52.3	62.9189
52.52	6.42012
52.74	9.57238
52.96	4.67588
53.18	0.781676
53.4	5.91329
53.62	3.0187
53.84	4.10331
54.06	2.03447
54.28	14.1047
54.5	6.22677
54.72	4.99012
54.94	6.92388
55.16	2.95676
55.38	0.879552
55.6	2.71791
55.82	2.53651
56.04	8.34779
56.26	1.85938
56.48	2.95715
56.7	41.6537
56.92	33.4563
57.14	23.1664
57.36	14.3021
57.58	21.3138
57.8	5.42551
58.02	9.64851
58.24	1.03014
58.46	6.39466
58.68	9.66654
58.9	12.0618
59.12	0.379837
59.34	3.62905
59.56	3.48749
59.78	8.66399
60	1.61457
60.22	10.74
60.44	11.2253
60.66	2.21477
60.88	4.05879
61.1	6.88397
61.32	1.76857
61.54	0.473541
61.76	5.50267
61.98	2.31782
62.2	7.15071
62.42	3.03416
62.64	13.7434
62.86	8.35869
63.08	18.3115
63.3	3.29427
63.52	1.48653
63.74	0.255511
63.96	2.829
64.18	36.9088
64.4	17.0121
64.62	5.14877
64.84	7.20902
65.06	0.799459
65.28	26.1444
65.5	12.3003
65.72	2.32854
65.94	5.16128
66.16	2.05284
66.38	4.9341
66.6	1.01218
66.82	0.87959
67.04	0.044755
67.26	7.00106
67.48	15.023
67.7	10.8951
67.92	4.77415
68.14	2.67099
68.36	0.40258
68.58	0.459435
68.8	4.39264
69.02	9.26715
69.24	7.43116
69.46	9.40788
69.68	2.32748
69.9	5.39924
70.12	1.38304
70.34	5.6552
70.56	2.72877
70.78	6.91979
71	9.13061
71.22	4.23332
71.44	0.690324
71.66	1.08516
71.88	2.09419
72.1	1.14325
72.32	6.20483
72.54	10.1934
72.76	5.2525
72.98	20.4868
73.2	12.5375
73.42	1.34806
73.64	1.2813
73.86	2.32252
74.08	2.71005
74.3	7.18232
74.52	2.1346
74.74	7.17123
74.96	7.1058
75.18	4.96349
75.4	1.86599
75.62	0.08081
75.84	18.9319
76.06	9.18466
76.28	6.21923
76.5	0.647194
76.72	1.54598
76.94	5.6522
77.16	5.6281
77.38	7.06349
77.6	4.31016
77.82	6.24909
78.04	5.10078
78.26	10.1039
78.48	4.91066
78.7	2.84816
78.92	3.92482
79.14	3.10716
79.36	11.011
79.58	7.90716
79.8	6.60311
80.02	4.28096
80.24	9.18629
80.46	7.19435
80.68	4.22801
80.9	3.12593
81.12	4.15147
81.34	6.95294
81.56	3.69195
81.78	1.76079
82	5.68796
82.22	8.9741
82.44	7.22742
82.66	6.38105
82.88	2.51696
83.1	2.52983
83.32	6.7999
83.54	7.8071
83.76	0.099141
83.98	12.0463
84.2	3.20655
84.42	4.28683
84.64	2.08305
84.86	7.083
85.08	2.24936
85.3	1.23532
85.52	2.2925
85.74	0.169711
85.96	1.13232
86.18	1.12248
86.4	2.01649
86.62	1.18168
86.84	1.6469
87.06	1.52832
87.28	5.4467
87.5	10.2896
87.72	4.12241
87.94	0.104732
88.16	3.11284
88.38	11.2642
88.6	3.34739
88.82	3.40046
89.04	0.368558
89.26	3.88776
89.48	8.03453
89.7	6.24046
89.92	13.062
