Measurement: Powder, Xray Data XY Processed
Mineral: Ludlamite
Rruff sample: R040152
Ideal chemistry: Fe^2+^_3_(PO_4_)_2_4H_2_O
Locality: Cobalt, Lemhi County, Idaho, USA
Source: University of Arizona Mineral Museum
Description: Green tabular single crystals
Diffraction sample description: Powder
Measured chemistry: Fe_3.01_(P_1.00_O_4_)_2_Â·4H_2_O
Cell parameters: a: 10.546(2) b: 4.6482(3) c: 9.3176(4) alpha: 90. beta: 100.527(6) gamma: 90. volume: 449.09(7) crystal system: monoclinic
x	intensity
5	0
5.22	23.51
5.44	9.65932
5.66	0.042038
5.88	22.3842
6.1	7.02516
6.32	17.2837
6.54	9.99959
6.76	12.835
6.98	4.16159
7.2	37.4799
7.42	40.8359
7.64	10.282
7.86	14.2337
8.08	17.5183
8.3	10.1808
8.52	40.4843
8.74	38.3704
8.96	40.3487
9.18	18.8627
9.4	21.9151
9.62	46.3639
9.84	19.6522
10.06	22.0858
10.28	27.3024
10.5	24.0902
10.72	35.0373
10.94	22.4641
11.16	14.6976
11.38	20.4895
11.6	6.81477
11.82	28.2962
12.04	33.5043
12.26	4.8898
12.48	6.50858
12.7	48.7522
12.92	15.2003
13.14	49.0387
13.36	34.138
13.58	30.2708
13.8	24.4504
14.02	28.6247
14.24	17.7781
14.46	26.9338
14.68	39.0516
14.9	9.0629
15.12	36.2434
15.34	39.1135
15.56	17.8834
15.78	38.8834
16	4.41312
16.22	37.6687
16.44	36.9889
16.66	15.2295
16.88	24.407
17.1	33.3234
17.32	34.9933
17.54	33.5546
17.76	15.4118
17.98	29.4205
18.2	17.9691
18.42	11.1855
18.64	1.82646
18.86	11.1341
19.08	46.9008
19.3	32.013
19.52	22.5273
19.74	33.9912
19.96	18.6193
20.18	9.28966
20.4	27.9713
20.62	8.43382
20.84	17.2595
21.06	54.2497
21.28	32.2071
21.5	36.2315
21.72	34.2188
21.94	21.1827
22.16	25.7045
22.38	53.8737
22.6	23.0133
22.82	16.1091
23.04	2.22882
23.26	33.8681
23.48	26.9493
23.7	38.1517
23.92	24.5596
24.14	16.1872
24.36	5.60266
24.58	21.3429
24.8	17.9816
25.02	3.38377
25.24	1.89682
25.46	22.9315
25.68	20.3724
25.9	18.7792
26.12	37.6815
26.34	32.4649
26.56	11.2302
26.78	16.6394
27	21.0636
27.22	31.8197
27.44	27.8052
27.66	47.2319
27.88	37.4684
28.1	24.7992
28.32	19.822
28.54	15.0581
28.76	24.0601
28.98	9.47577
29.2	56.3481
29.42	38.1551
29.64	4.94582
29.86	154.909
30.08	17.314
30.3	14.8746
30.52	58.1706
30.74	10.9157
30.96	39.258
31.18	3.17371
31.4	12.9011
31.62	27.0657
31.84	26.5754
32.06	2.7666
32.28	101.9
32.5	30.2987
32.72	20.4926
32.94	17.9924
33.16	3.21011
33.38	19.5154
33.6	44.1692
33.82	8.04645
34.04	30.6358
34.26	3.49953
34.48	1.00723
34.7	11.3843
34.92	18.3799
35.14	78.0664
35.36	87.4774
35.58	3.84972
35.8	28.3108
36.02	32.3279
36.24	38.0226
36.46	48.2007
36.68	31.0252
36.9	39.5472
37.12	11.6082
37.34	34.16
37.56	125.328
37.78	67.7466
38	7.873
38.22	12.4324
38.44	9.89912
38.66	9.70869
38.88	29.8778
39.1	13.2456
39.32	10.2135
39.54	4.67506
39.76	32.6212
39.98	41.7394
40.2	32.9054
40.42	64.8725
40.64	36.4238
40.86	13.2313
41.08	5.11154
41.3	15.2044
41.52	30.683
41.74	72.8271
41.96	41.9376
42.18	30.9319
42.4	42.7444
42.62	40.7667
42.84	11.4708
43.06	8.88998
43.28	8.18706
43.5	49.6271
43.72	13.5346
43.94	5.05212
44.16	24.4179
44.38	44.0598
44.6	30.1993
44.82	13.6402
45.04	15.4254
45.26	22.439
45.48	21.0973
45.7	13.3804
45.92	23.9668
46.14	27.3701
46.36	1.93787
46.58	53.1215
46.8	23.1993
47.02	35.1719
47.24	17.102
47.46	43.7497
47.68	47.5444
47.9	23.8334
48.12	60.822
48.34	26.7575
48.56	7.00948
48.78	31.1976
49	41.6757
49.22	44.4441
49.44	25.2085
49.66	28.552
49.88	19.9098
50.1	8.91934
50.32	39.3367
50.54	10.8172
50.76	38.1526
50.98	26.8753
51.2	2.48509
51.42	19.2792
51.64	10.6414
51.86	9.0276
52.08	20.3511
52.3	31.3991
52.52	20.8456
52.74	3.09724
52.96	48.2032
53.18	21.2137
53.4	55.8141
53.62	34.6296
53.84	31.1894
54.06	11.2571
54.28	28.3115
54.5	36.7473
54.72	27.544
54.94	19.4255
55.16	15.9913
55.38	27.6406
55.6	8.02183
55.82	39.3171
56.04	25.6225
56.26	47.9393
56.48	34.697
56.7	13.891
56.92	39.4337
57.14	8.8387
57.36	10.7313
57.58	37.0147
57.8	7.5744
58.02	3.72981
58.24	20.2678
58.46	17.1994
58.68	26.3772
58.9	37.6601
59.12	2.08191
59.34	36.7936
59.56	44.4057
59.78	18.9432
60	14.2747
60.22	39.5449
60.44	9.26329
60.66	28.4136
60.88	32.3377
61.1	10.7561
61.32	24.7894
61.54	4.01019
61.76	46.5925
61.98	7.25334
62.2	13.5016
62.42	25.5289
62.64	15.4584
62.86	25.7629
63.08	42.0341
63.3	37.2239
63.52	27.5383
63.74	19.3249
63.96	17.6399
64.18	22.6208
64.4	21.6623
64.62	34.8562
64.84	70.1544
65.06	64.7289
65.28	28.3636
65.5	16.6605
65.72	30.446
65.94	6.09012
66.16	42.9685
66.38	6.5221
66.6	49.2552
66.82	39.2231
67.04	61.2557
67.26	6.95076
67.48	19.7903
67.7	9.45827
67.92	43.3581
68.14	21.8491
68.36	17.7183
68.58	26.5373
68.8	8.11548
69.02	14.0698
69.24	35.0544
69.46	44.2321
69.68	41.9761
69.9	8.09479
70.12	21.0393
70.34	2.87575
70.56	45.3391
70.78	16.3472
71	26.8298
71.22	11.4312
71.44	38.0457
71.66	45.1962
71.88	24.108
72.1	13.9896
72.32	39.6161
72.54	5.83092
72.76	24.513
72.98	31.1247
73.2	16.933
73.42	37.0087
73.64	24.4337
73.86	30.012
74.08	20.8128
74.3	24.4653
74.52	35.6506
74.74	17.1571
74.96	14.4063
75.18	26.8608
75.4	4.81366
75.62	67.5563
75.84	36.2486
76.06	48.6882
76.28	33.8974
76.5	14.0788
76.72	18.76
76.94	0.618622
77.16	8.1458
77.38	10.9612
77.6	49.0737
77.82	36.552
78.04	15.3949
78.26	48.2195
78.48	31.396
78.7	21.4077
78.92	23.7108
79.14	21.606
79.36	41.9098
79.58	21.0827
79.8	33.0721
80.02	26.0381
80.24	5.55127
80.46	13.2513
80.68	21.989
80.9	39.5797
81.12	41.0765
81.34	43.946
81.56	41.2654
81.78	56.9059
82	15.371
82.22	30.5039
82.44	30.8276
82.66	48.8915
82.88	16.472
83.1	3.35953
83.32	27.5545
83.54	7.50339
83.76	29.3574
83.98	25.4507
84.2	3.05452
84.42	12.2566
84.64	37.8607
84.86	14.8041
85.08	42.9489
85.3	20.5015
85.52	18.6437
85.74	8.10208
85.96	13.8096
86.18	32.6278
86.4	17.4826
86.62	11.3832
86.84	37.4013
87.06	2.64754
87.28	10.0695
87.5	28.3465
87.72	21.8981
87.94	13.1954
88.16	32.5169
88.38	48.6922
88.6	19.2776
88.82	43.426
89.04	28.34
89.26	41.9301
89.48	20.5936
89.7	39.9932
89.92	10.36
