Measurement: Powder, Xray Data XY Processed
Mineral: Magnesiochromite
Rruff sample: R060796
Ideal chemistry: MgCr^3+^_2_O_4_
Locality: State Line Chrome mine (Low's mine), Cecil County, Maryland, USA
Source: California Institute of Technology
Description: Black massive
Diffraction sample description: Powder
Measured chemistry: (Mg_0.57_Fe^2+^_0.43_)_Σ=1_(Cr_1.52_Al_0.41_Fe^3+^_0.07_)_Σ=2_O_4_
Cell parameters: a: 8.3112(7) b: 8.3112(7) c: 8.3112(7) alpha: 90 beta: 90 gamma: 90 volume: 574.1(0) crystal system: cubic
x	intensity
5	0
5.22	12.7078
5.44	4.22937
5.66	16.2553
5.88	18.3849
6.1	20.322
6.32	13.3156
6.54	12.9879
6.76	8.06992
6.98	17.9627
7.2	18.0592
7.42	6.93419
7.64	3.10511
7.86	21.5556
8.08	12.7223
8.3	8.13426
8.52	9.2767
8.74	7.82646
8.96	2.34314
9.18	27.0578
9.4	9.58822
9.62	7.02616
9.84	0.466766
10.06	16.7101
10.28	9.59002
10.5	12.1911
10.72	10.4503
10.94	4.31642
11.16	4.76695
11.38	16.6782
11.6	1.24671
11.82	2.90188
12.04	13.7989
12.26	41.611
12.48	17.9438
12.7	17.6413
12.92	7.91327
13.14	9.5997
13.36	8.77243
13.58	14.2771
13.8	12.549
14.02	3.25048
14.24	19.9427
14.46	3.55049
14.68	12.5711
14.9	1.8861
15.12	19.4412
15.34	7.46286
15.56	4.65021
15.78	15.5515
16	7.91494
16.22	16.5506
16.44	16.7621
16.66	7.95154
16.88	10.0863
17.1	10.7797
17.32	11.8421
17.54	17.7944
17.76	9.57215
17.98	7.85099
18.2	10.9529
18.42	37.7545
18.64	8.07425
18.86	11.3573
19.08	5.96474
19.3	5.2054
19.52	10.9857
19.74	7.31484
19.96	6.25833
20.18	12.2111
20.4	14.7316
20.62	3.43007
20.84	15.4946
21.06	3.53925
21.28	8.30963
21.5	10.0997
21.72	12.2656
21.94	25.4331
22.16	13.104
22.38	10.1344
22.6	2.28037
22.82	2.43688
23.04	7.26877
23.26	10.3907
23.48	14.2983
23.7	14.9879
23.92	19.2388
24.14	9.4959
24.36	11.7051
24.58	24.5764
24.8	32.9926
25.02	8.20556
25.24	5.2906
25.46	12.3873
25.68	20.2773
25.9	19.398
26.12	4.50029
26.34	21.962
26.56	5.64518
26.78	11.4611
27	19.6899
27.22	12.367
27.44	20.0719
27.66	9.81389
27.88	17.5892
28.1	7.54286
28.32	20.3528
28.54	5.43714
28.76	7.86923
28.98	5.13551
29.2	8.12734
29.42	9.51277
29.64	24.3914
29.86	6.21599
30.08	9.93526
30.3	16.8265
30.52	48.6291
30.74	13.153
30.96	3.21169
31.18	6.43808
31.4	6.35418
31.62	10.5226
31.84	0.465321
32.06	14.525
32.28	7.75388
32.5	8.29046
32.72	15.2317
32.94	3.62114
33.16	2.08266
33.38	19.7096
33.6	9.96511
33.82	0.683201
34.04	5.1502
34.26	3.14394
34.48	23.419
34.7	12.1853
34.92	0.649456
35.14	16.1731
35.36	10.9209
35.58	24.1818
35.8	203.967
36.02	43.4035
36.24	12.9957
36.46	23.098
36.68	15.0425
36.9	8.40578
37.12	7.9972
37.34	13.0469
37.56	7.54979
37.78	24.7863
38	7.83167
38.22	7.31096
38.44	12.8928
38.66	7.7743
38.88	9.03376
39.1	18.2392
39.32	9.29394
39.54	7.80957
39.76	4.1392
39.98	29.831
40.2	9.7664
40.42	18.7422
40.64	8.52235
40.86	4.21268
41.08	9.11553
41.3	9.11039
41.52	9.25147
41.74	0.687263
41.96	7.21014
42.18	1.00439
42.4	9.7855
42.62	22.4377
42.84	7.28679
43.06	6.39174
43.28	8.02051
43.5	58.0258
43.72	33.0257
43.94	22.8629
44.16	3.09266
44.38	11.1404
44.6	16.4387
44.82	11.9561
45.04	12.248
45.26	1.45342
45.48	3.65781
45.7	13.7891
45.92	21.2271
46.14	14.1148
46.36	7.76453
46.58	15.7009
46.8	0.878067
47.02	8.12353
47.24	2.12375
47.46	4.82224
47.68	8.03976
47.9	5.95986
48.12	6.25737
48.34	0.89806
48.56	14.5032
48.78	19.2055
49	2.08506
49.22	14.1114
49.44	9.95753
49.66	3.0945
49.88	21.7351
50.1	4.3605
50.32	12.2519
50.54	7.93168
50.76	18.1008
50.98	16.1215
51.2	10.6489
51.42	5.14825
51.64	22.7648
51.86	7.82133
52.08	2.85489
52.3	2.02835
52.52	17.9296
52.74	13.8638
52.96	12.7046
53.18	24.6891
53.4	13.5042
53.62	5.62064
53.84	6.36064
54.06	32.5194
54.28	16.3137
54.5	6.264
54.72	3.5911
54.94	4.08108
55.16	10.2307
55.38	0.470657
55.6	9.40054
55.82	21.13
56.04	5.2656
56.26	14.5731
56.48	13.584
56.7	5.60416
56.92	3.40411
57.14	11.3259
57.36	20.9262
57.58	56.0943
57.8	51.9128
58.02	15.3935
58.24	25.1857
58.46	9.82795
58.68	3.76554
58.9	14.7192
59.12	15.7244
59.34	17.8004
59.56	7.99997
59.78	21.1292
60	2.65109
60.22	3.36747
60.44	24.4214
60.66	12.2695
60.88	4.20253
61.1	1.81662
61.32	5.10942
61.54	10.8033
61.76	13.453
61.98	7.78349
62.2	5.4296
62.42	8.38842
62.64	12.8113
62.86	4.56191
63.08	29.5125
63.3	134.814
63.52	30.0993
63.74	3.52794
63.96	5.91916
64.18	3.36781
64.4	5.70689
64.62	3.14663
64.84	5.57493
65.06	12.837
65.28	1.46787
65.5	10.6688
65.72	0.459385
65.94	6.54023
66.16	8.29333
66.38	1.38407
66.6	27.5507
66.82	19.9536
67.04	17.3118
67.26	11.5814
67.48	4.42717
67.7	7.29922
67.92	12.6161
68.14	11.6938
68.36	7.11934
68.58	6.15874
68.8	14.0579
69.02	8.47935
69.24	1.00192
69.46	6.29119
69.68	8.32471
69.9	20.3404
70.12	4.41488
70.34	17.2366
70.56	14.1639
70.78	3.22845
71	6.82268
71.22	5.51544
71.44	9.15136
71.66	11.4233
71.88	4.62946
72.1	12.0753
72.32	7.83329
72.54	5.55873
72.76	13.4786
72.98	9.4419
73.2	9.73894
73.42	8.40162
73.64	2.59118
73.86	14.3311
74.08	25.7546
74.3	9.43859
74.52	10.0813
74.74	8.92311
74.96	8.14509
75.18	9.10567
75.4	11.4346
75.62	1.89833
75.84	27.0855
76.06	7.47047
76.28	11.344
76.5	8.71602
76.72	0.746315
76.94	15.9312
77.16	8.42966
77.38	7.33198
77.6	25.8261
77.82	20.5194
78.04	14.6389
78.26	13.8403
78.48	14.1599
78.7	23.6456
78.92	7.6001
79.14	15.6647
79.36	21.7202
79.58	7.98345
79.8	7.01463
80.02	7.66602
80.24	13.6621
80.46	15.664
80.68	12.2981
80.9	12.7979
81.12	10.5341
81.34	13.6496
81.56	13.3686
81.78	12.78
82	1.51821
82.22	3.4695
82.44	1.58167
82.66	20.9891
82.88	11.8814
83.1	9.03386
83.32	0.825821
83.54	3.90417
83.76	2.91039
83.98	13.1192
84.2	8.62367
84.42	0.65221
84.64	0.707771
84.86	16.5108
85.08	10.9846
85.3	3.2419
85.52	12.2332
85.74	10.0879
85.96	2.89563
86.18	2.78791
86.4	1.22059
86.62	10.3842
86.84	20.5448
87.06	26.8969
87.28	5.48183
87.5	2.76298
87.72	14.1587
87.94	11.3231
88.16	20.4711
88.38	14.9593
88.6	15.5519
88.82	14.5705
89.04	10.4147
89.26	10.0371
89.48	9.49179
89.7	4.00103
89.92	10.3379
