Measurement: Powder, Xray Data XY Processed
Mineral: Magnesiochromite
Rruff sample: R060797
Ideal chemistry: MgCr^3+^_2_O_4_
Locality: Benbow mine, Stillwater Complex, Mount Wood area, Stillwater County, Montana, USA
Source: California Institute of Technology
Description: Black granular massive
Diffraction sample description: Powder
Measured chemistry: (Mg_0.55_Fe^2+^_0.45_)_Σ=1_(Cr_1.28_Al_0.58_Fe^3+^_0.14_)_Σ=2_O_4_
Cell parameters: a: 8.2940(3) b: 8.2940(3) c: 8.2940(3) alpha: 90 beta: 90 gamma: 90 volume: 570.54(6) crystal system: cubic
x	intensity
5	0
5.22	18.6914
5.44	1.04486
5.66	15.2482
5.88	4.99857
6.1	4.665
6.32	10.3122
6.54	14.9065
6.76	8.74005
6.98	13.1132
7.2	29.4604
7.42	2.10552
7.64	14.6653
7.86	9.15798
8.08	13.1886
8.3	16.9164
8.52	19.3981
8.74	10.857
8.96	8.27861
9.18	15.5476
9.4	7.84428
9.62	7.00317
9.84	19.9391
10.06	8.92686
10.28	3.98892
10.5	22.9744
10.72	7.36962
10.94	11.3122
11.16	10.4841
11.38	2.49339
11.6	10.1871
11.82	12.0845
12.04	16.8387
12.26	7.55239
12.48	4.38798
12.7	22.8438
12.92	5.07359
13.14	16.2493
13.36	8.42877
13.58	1.43313
13.8	14.619
14.02	5.53317
14.24	8.80185
14.46	2.91894
14.68	6.21255
14.9	12.4331
15.12	17.0558
15.34	5.25166
15.56	22.6194
15.78	5.97336
16	7.8274
16.22	4.90388
16.44	11.7886
16.66	1.762
16.88	8.14248
17.1	9.41767
17.32	12.0273
17.54	15.6764
17.76	9.31472
17.98	0.326653
18.2	12.7143
18.42	20.5294
18.64	17.176
18.86	13.2468
19.08	8.7622
19.3	5.77546
19.52	12.9975
19.74	7.97391
19.96	6.39297
20.18	11.3793
20.4	19.4012
20.62	1.74301
20.84	15.1033
21.06	28.524
21.28	9.93529
21.5	8.73009
21.72	12.7919
21.94	12.4366
22.16	0.633934
22.38	2.0372
22.6	9.84105
22.82	2.68867
23.04	8.33834
23.26	2.34329
23.48	1.984
23.7	1.98746
23.92	2.70218
24.14	6.02114
24.36	9.35664
24.58	14.5035
24.8	4.09014
25.02	11.3261
25.24	14.378
25.46	13.3768
25.68	3.38184
25.9	12.4626
26.12	17.4775
26.34	2.33703
26.56	4.95141
26.78	1.82405
27	10.1743
27.22	23.8223
27.44	7.57832
27.66	18.8622
27.88	14.5505
28.1	25.523
28.32	18.3933
28.54	7.36841
28.76	13.0919
28.98	15.8122
29.2	10.5103
29.42	1.66781
29.64	8.28
29.86	12.977
30.08	9.32515
30.3	14.0988
30.52	69.4369
30.74	15.3581
30.96	0.67852
31.18	7.59855
31.4	15.9573
31.62	12.0109
31.84	9.65249
32.06	16.8808
32.28	18.1177
32.5	9.36887
32.72	12.6197
32.94	14.1901
33.16	22.4086
33.38	22.0129
33.6	10.9093
33.82	3.73415
34.04	16.1163
34.26	13.6104
34.48	12.0082
34.7	4.27611
34.92	15.2486
35.14	12.6718
35.36	16.237
35.58	3.60399
35.8	49.4099
36.02	177.852
36.24	16.507
36.46	14.3441
36.68	9.4974
36.9	6.26755
37.12	2.29083
37.34	3.70305
37.56	33.9192
37.78	13.2332
38	4.40503
38.22	6.30856
38.44	9.83373
38.66	0.530567
38.88	2.95349
39.1	8.48453
39.32	9.82252
39.54	14.1336
39.76	23.5969
39.98	1.68103
40.2	12.7248
40.42	7.23244
40.64	14.9995
40.86	8.69417
41.08	15.6419
41.3	15.5175
41.52	13.1675
41.74	20.0736
41.96	0.556213
42.18	3.63404
42.4	9.66698
42.62	2.80759
42.84	15.9523
43.06	3.51951
43.28	25.1619
43.5	14.8377
43.72	67.8367
43.94	0.266743
44.16	1.56236
44.38	17.0465
44.6	8.57716
44.82	12.2687
45.04	0.238354
45.26	10.8245
45.48	3.58606
45.7	14.1177
45.92	6.69408
46.14	16.964
46.36	1.46173
46.58	8.04908
46.8	18.8615
47.02	13.4072
47.24	9.25062
47.46	8.03435
47.68	12.1107
47.9	9.81842
48.12	3.0594
48.34	7.68483
48.56	24.8769
48.78	2.56641
49	10.7694
49.22	1.68348
49.44	3.9437
49.66	21.7256
49.88	27.4126
50.1	6.97079
50.32	7.82742
50.54	15.599
50.76	21.3291
50.98	8.65404
51.2	21.0969
51.42	7.40783
51.64	4.44869
51.86	13.4189
52.08	23.6499
52.3	15.5396
52.52	5.44157
52.74	16.7654
52.96	0.9198
53.18	18.9709
53.4	6.73703
53.62	17.0907
53.84	16.7856
54.06	13.0807
54.28	21.9682
54.5	16.6686
54.72	18.2008
54.94	0.988731
55.16	6.71413
55.38	2.72767
55.6	12.4413
55.82	15.5075
56.04	11.2246
56.26	15.7624
56.48	3.40426
56.7	21.0515
56.92	6.30058
57.14	13.135
57.36	6.86346
57.58	10.4348
57.8	52.3413
58.02	17.9294
58.24	9.47352
58.46	28.4347
58.68	12.3732
58.9	6.93825
59.12	13.4515
59.34	10.9576
59.56	20.203
59.78	10.0347
60	14.775
60.22	6.85289
60.44	17.7975
60.66	8.3165
60.88	8.30039
61.1	12.8031
61.32	22.5488
61.54	11.2471
61.76	22.9373
61.98	15.603
62.2	15.189
62.42	17.5753
62.64	26.1301
62.86	1.31179
63.08	1.4948
63.3	35.4833
63.52	47.4835
63.74	2.5231
63.96	1.41706
64.18	5.40888
64.4	15.8262
64.62	8.69877
64.84	17.9253
65.06	10.5692
65.28	7.03789
65.5	30.9904
65.72	10.8865
65.94	16.7811
66.16	12.1466
66.38	9.25396
66.6	5.34604
66.82	22.0645
67.04	16.9388
67.26	10.1929
67.48	23.2071
67.7	12.1748
67.92	14.6147
68.14	19.9106
68.36	4.16131
68.58	6.50777
68.8	16.4568
69.02	17.4307
69.24	7.9609
69.46	2.80916
69.68	5.69973
69.9	11.4291
70.12	8.30994
70.34	14.1976
70.56	10.5772
70.78	4.65361
71	19.2652
71.22	2.32514
71.44	19.7816
71.66	24.8663
71.88	15.8988
72.1	1.66151
72.32	23.3762
72.54	3.44967
72.76	9.35299
72.98	0.926933
73.2	17.131
73.42	2.93343
73.64	15.4323
73.86	1.63451
74.08	13.8309
74.3	9.84732
74.52	10.5611
74.74	14.4713
74.96	7.08625
75.18	17.7732
75.4	4.19724
75.62	3.72675
75.84	12.7288
76.06	25.4587
76.28	11.8693
76.5	17.1055
76.72	12.7272
76.94	13.169
77.16	5.29509
77.38	1.40533
77.6	11.9971
77.82	18.095
78.04	0.31493
78.26	16.4456
78.48	1.26621
78.7	11.0816
78.92	27.0648
79.14	9.91232
79.36	9.36285
79.58	15.4169
79.8	8.18749
80.02	4.15067
80.24	9.15112
80.46	14.0905
80.68	17.1714
80.9	10.5037
81.12	1.70746
81.34	9.9528
81.56	6.03631
81.78	12.778
82	3.67042
82.22	7.90176
82.44	19.7644
82.66	7.74152
82.88	13.782
83.1	6.47763
83.32	12.5479
83.54	17.0561
83.76	10.3199
83.98	17.3124
84.2	0.416336
84.42	14.4672
84.64	9.29675
84.86	8.30387
85.08	0.249645
85.3	0.20351
85.52	27.0061
85.74	9.82822
85.96	19.5981
86.18	27.6374
86.4	3.08475
86.62	9.73571
86.84	10.937
87.06	17.6658
87.28	10.687
87.5	2.32653
87.72	0.189503
87.94	17.4162
88.16	13.2376
88.38	13.6938
88.6	14.1224
88.82	13.0164
89.04	12.398
89.26	20.1716
89.48	14.2349
89.7	0.38306
89.92	12.2452
