Measurement: Powder, Xray Data XY Processed
Mineral: Magnetite
Rruff sample: R060191
Ideal chemistry: Fe^2+^Fe^3+^_2_O_4_
Locality: Merry Widow mine, Vancouver Island, British Columbia, Canada
Source: Lloyd Twaites
Description: Grayish-black octahedral crystals
Diffraction sample description: Powder
Measured chemistry: (Fe^2+^_0.97_Mg_0.03_)(Fe^3+^_0.97_Al_0.03_)_2_O_4_
Cell parameters: a: 8.3961(5) b: 8.3961(5) c: 8.3961(5) alpha: 90 beta: 90 gamma: 90 volume: 591.9(0) crystal system: cubic
x	intensity
5	0
5.22	10.808
5.44	16.402
5.66	24.485
5.88	14.031
6.1	13.506
6.32	20.656
6.54	15.834
6.76	22.436
6.98	5.281
7.2	3.376
7.42	11.872
7.64	9.047
7.86	27.969
8.08	13.151
8.3	34.936
8.52	11.73
8.74	0.936
8.96	7.408
9.18	14.188
9.4	20.566
9.62	13.75
9.84	7.765
10.06	11.402
10.28	16.514
10.5	11.482
10.72	6.618
10.94	11.521
11.16	14.253
11.38	7.864
11.6	9.178
11.82	16.829
12.04	6.28
12.26	3.334
12.48	17.79
12.7	15.366
12.92	18.282
13.14	12.508
13.36	9.602
13.58	18.86
13.8	9.036
14.02	7.439
14.24	25.246
14.46	12.656
14.68	10.77
14.9	0.215
15.12	8.94
15.34	4.563
15.56	10.555
15.78	19.223
16	21.128
16.22	20.564
16.44	15.773
16.66	17.224
16.88	1.421
17.1	7.93
17.32	8.509
17.54	13.428
17.76	18.253
17.98	3.027
18.2	31.423
18.42	26.294
18.64	6.971
18.86	11.422
19.08	6.704
19.3	17.487
19.52	10.315
19.74	26.434
19.96	14.251
20.18	13.194
20.4	9.242
20.62	21.34
20.84	9.441
21.06	4.313
21.28	10.765
21.5	18.312
21.72	1.082
21.94	2.759
22.16	8.597
22.38	11.001
22.6	21.77
22.82	3.855
23.04	9.227
23.26	12.783
23.48	3.699
23.7	8.363
23.92	8.003
24.14	11.705
24.36	0.961
24.58	14.77
24.8	19.617
25.02	30.493
25.24	13.528
25.46	15.951
25.68	1.119
25.9	0.982
26.12	25.021
26.34	11.991
26.56	15.693
26.78	25.668
27	2.826
27.22	25.761
27.44	4.344
27.66	19.969
27.88	22.401
28.1	23.7
28.32	11.24
28.54	8.104
28.76	1.332
28.98	4.14
29.2	12.696
29.42	14.047
29.64	20.411
29.86	15.344
30.08	3.45
30.3	12.205
30.52	11.657
30.74	2.087
30.96	17.995
31.18	18.232
31.4	4.889
31.62	15.501
31.84	5.742
32.06	24.992
32.28	3.575
32.5	14.448
32.72	19.271
32.94	19.842
33.16	24.332
33.38	24.824
33.6	11.026
33.82	7.498
34.04	21.611
34.26	15.808
34.48	15.467
34.7	19.762
34.92	7.479
35.14	26.208
35.36	12.959
35.58	102.923
35.8	27.715
36.02	15.476
36.24	15.034
36.46	17.549
36.68	3.534
36.9	22.51
37.12	27.827
37.34	27.997
37.56	1.894
37.78	12.02
38	9.191
38.22	12.005
38.44	5.365
38.66	10.986
38.88	15.132
39.1	23.876
39.32	12.71
39.54	9.314
39.76	20.444
39.98	10.314
40.2	15.924
40.42	9.536
40.64	4.905
40.86	23.02
41.08	12.782
41.3	16.457
41.52	17.235
41.74	6.015
41.96	3.93
42.18	16.116
42.4	28.659
42.62	4.14
42.84	27.826
43.06	14.373
43.28	37.921
43.5	11.782
43.72	18.813
43.94	2.871
44.16	13.594
44.38	9.93
44.6	4.153
44.82	15.521
45.04	20.435
45.26	26.229
45.48	5.068
45.7	8.722
45.92	27.495
46.14	21.168
46.36	14.742
46.58	7.956
46.8	32.444
47.02	21.029
47.24	0.991
47.46	2.138
47.68	3.742
47.9	21.674
48.12	17.653
48.34	19.438
48.56	4.506
48.78	12.385
49	2.173
49.22	8.726
49.44	21.931
49.66	13.559
49.88	0.441
50.1	18.752
50.32	6.196
50.54	11.65
50.76	15.455
50.98	25.05
51.2	27.831
51.42	26.418
51.64	15.404
51.86	5.983
52.08	21.676
52.3	11.795
52.52	17.86
52.74	4.601
52.96	9.828
53.18	7.738
53.4	26.239
53.62	11.741
53.84	8.818
54.06	13.713
54.28	22.388
54.5	5.537
54.72	12.918
54.94	0.347
55.16	20.162
55.38	17.305
55.6	21.369
55.82	23.624
56.04	6.591
56.26	9.724
56.48	5.434
56.7	16.002
56.92	18.641
57.14	43.06
57.36	7.532
57.58	5.818
57.8	9.354
58.02	11.593
58.24	8.668
58.46	11.902
58.68	20.229
58.9	4.351
59.12	13.427
59.34	11.595
59.56	20.853
59.78	14.358
60	26.383
60.22	32.634
60.44	18.893
60.66	12.992
60.88	11.964
61.1	13.506
61.32	18.846
61.54	31.372
61.76	9.728
61.98	9.481
62.2	11.168
62.42	5.754
62.64	68.616
62.86	14.549
63.08	32.806
63.3	9.158
63.52	10.761
63.74	19.256
63.96	18.309
64.18	5.496
64.4	11.224
64.62	38.474
64.84	25.153
65.06	5.788
65.28	10.659
65.5	6.22
65.72	9.412
65.94	4.083
66.16	8.527
66.38	8.639
66.6	2.519
66.82	10.762
67.04	14.226
67.26	20.68
67.48	0.865
67.7	2.22
67.92	11.345
68.14	42.824
68.36	10.661
68.58	5.583
68.8	24.254
69.02	28.109
69.24	32.763
69.46	14.802
69.68	12.671
69.9	1.439
70.12	8.942
70.34	10.075
70.56	16.348
70.78	1.225
71	3.221
71.22	21.825
71.44	19.565
71.66	31.413
71.88	13.415
72.1	13.508
72.32	8.424
72.54	15.157
72.76	36.886
72.98	16.548
73.2	24.744
73.42	21.939
73.64	21.613
73.86	15.973
74.08	30.339
74.3	41.2
74.52	29.547
74.74	22.076
74.96	28.641
75.18	14.668
75.4	15.408
75.62	15.153
75.84	41.529
76.06	19.403
76.28	23.529
76.5	14.995
76.72	21.563
76.94	6.711
77.16	16.482
77.38	27.589
77.6	29.114
77.82	4.957
78.04	19.825
78.26	23.058
78.48	20.277
78.7	18.292
78.92	8.106
79.14	0.774
79.36	12.173
79.58	29.167
79.8	16.127
80.02	25.562
80.24	10.692
80.46	15.318
80.68	10.037
80.9	14.607
81.12	24.413
81.34	23.125
81.56	5.102
81.78	6.362
82	18.285
82.22	18.427
82.44	25.381
82.66	17.721
82.88	30.332
83.1	17.608
83.32	27.23
83.54	13.022
83.76	22.668
83.98	22.766
84.2	22.618
84.42	10.312
84.64	1.476
84.86	35.754
85.08	31.375
85.3	21.784
85.52	5.719
85.74	16.608
85.96	21.101
86.18	20.175
86.4	20.81
86.62	19.938
86.84	23.873
87.06	9.793
87.28	9.049
87.5	16.69
87.72	26.207
87.94	12.636
88.16	19.94
88.38	16.95
88.6	35.047
88.82	31.848
89.04	6.185
89.26	28.443
89.48	11.225
89.7	29.523
89.92	14.124
