Measurement: Powder, Xray Data XY Processed
Mineral: Manganvesuvianite
Rruff sample: R060377
Ideal chemistry: Ca_19_Mn^3+^Al_10_Mg_2_(SiO_4_)_10_(Si_2_O_7_)_4_O(OH)_9_
Locality: K'Chwaning II mine, Kalahari manganese field, north Cape Province, South Africa
Source: Michael Scott
Description: Deep reddish-brown prismatic crystals associated with black hausmannite
Diffraction sample description: Powder
Cell parameters: a: 15.543(1) b: 15.543(1) c: 11.8002(6) alpha: 90. beta: 90. gamma: 90. volume: 2850.8(4) crystal system: tetragonal
x	intensity
5	0
5.22	13.326
5.44	9.299
5.66	3.784
5.88	2.329
6.1	9.088
6.32	8.251
6.54	4.301
6.76	8.209
6.98	12.511
7.2	10.571
7.42	13.176
7.64	4.301
7.86	13.78
8.08	28.731
8.3	10.764
8.52	3.774
8.74	11.688
8.96	7.512
9.18	1.419
9.4	4.206
9.62	11.335
9.84	9.668
10.06	3.287
10.28	1.415
10.5	15.953
10.72	6.289
10.94	13.589
11.16	5.848
11.38	3.19
11.6	6.535
11.82	12.573
12.04	10.64
12.26	4.052
12.48	5.619
12.7	4.566
12.92	6.414
13.14	6.476
13.36	12.458
13.58	6.563
13.8	14.296
14.02	2.249
14.24	2.423
14.46	7.483
14.68	0.402
14.9	2.523
15.12	8.667
15.34	12.996
15.56	7.292
15.78	7.597
16	4.616
16.22	8.912
16.44	12.26
16.66	1.077
16.88	7.184
17.1	12.166
17.32	15.291
17.54	4.281
17.76	3.913
17.98	3.614
18.2	5.43
18.42	5.36
18.64	8.258
18.86	21.847
19.08	2.85
19.3	1.119
19.52	1.19
19.74	16.284
19.96	6.574
20.18	11.021
20.4	8.346
20.62	12.641
20.84	7.975
21.06	2.977
21.28	4.233
21.5	3.125
21.72	7.034
21.94	7.937
22.16	19.825
22.38	4.516
22.6	3.21
22.82	10.969
23.04	5.862
23.26	9.588
23.48	8.018
23.7	6.939
23.92	5.149
24.14	4.117
24.36	6.075
24.58	5.078
24.8	7.027
25.02	4.951
25.24	6.931
25.46	8.047
25.68	29.13
25.9	7.523
26.12	8.47
26.34	2.142
26.56	1.18
26.78	1.169
27	4.35
27.22	6.437
27.44	10.655
27.66	4.592
27.88	3.385
28.1	8.176
28.32	5.006
28.54	0.037
28.76	1.883
28.98	11.702
29.2	7.485
29.42	13.12
29.64	8.021
29.86	19.844
30.08	8.851
30.3	150.7
30.52	1.618
30.74	15.829
30.96	0.12
31.18	4.708
31.4	20.582
31.62	0.525
31.84	1.797
32.06	7.067
32.28	4.665
32.5	108.538
32.72	30.563
32.94	3.413
33.16	3.992
33.38	5.944
33.6	2.981
33.82	6.746
34.04	4.805
34.26	1.829
34.48	84.834
34.7	50.203
34.92	3.905
35.14	2.055
35.36	5.881
35.58	11.874
35.8	0.112
36.02	0.099
36.24	10.532
36.46	29
36.68	26.2
36.9	16.245
37.12	1.78
37.34	8.884
37.56	5.935
37.78	6.045
38	9.444
38.22	8.624
38.44	13.042
38.66	16
38.88	4.464
39.1	5.65
39.32	3.661
39.54	3.905
39.76	8.948
39.98	4.83
40.2	3.733
40.42	11.578
40.64	7.373
40.86	12.077
41.08	16.903
41.3	10.761
41.52	3.733
41.74	2.705
41.96	14.366
42.18	15.595
42.4	10.669
42.62	16.804
42.84	0.263
43.06	2.118
43.28	6.653
43.5	7.444
43.72	6.394
43.94	9.364
44.16	7.522
44.38	13.567
44.6	8.613
44.82	8.061
45.04	12.012
45.26	5.899
45.48	17.377
45.7	1.628
45.92	7.051
46.14	9.956
46.36	8.96
46.58	1.832
46.8	5.746
47.02	3.512
47.24	10.179
47.46	1.278
47.68	8.548
47.9	5.403
48.12	12.274
48.34	11.16
48.56	2.486
48.78	7.907
49	6.22
49.22	9.6
49.44	8.146
49.66	4.414
49.88	1.481
50.1	7.55
50.32	5.606
50.54	6.486
50.76	3.789
50.98	8.915
51.2	3.66
51.42	6.77
51.64	9.631
51.86	21.154
52.08	7.055
52.3	9.104
52.52	3.009
52.74	7.671
52.96	6.732
53.18	9.738
53.4	1.593
53.62	3.198
53.84	5.163
54.06	7.03
54.28	3.969
54.5	13.351
54.72	13.271
54.94	16.262
55.16	18.369
55.38	15.998
55.6	6.861
55.82	6.739
56.04	9.74
56.26	4.405
56.48	12.338
56.7	24.273
56.92	19.954
57.14	11.078
57.36	1.544
57.58	10.417
57.8	9.411
58.02	0.409
58.24	7.411
58.46	0.263
58.68	9.318
58.9	10.202
59.12	16.228
59.34	17.96
59.56	2.565
59.78	6.913
60	7.29
60.22	4.274
60.44	3.54
60.66	11.644
60.88	7.774
61.1	1.868
61.32	1.105
61.54	7.533
61.76	11.829
61.98	13.066
62.2	8.227
62.42	4.301
62.64	1.196
62.86	13.252
63.08	8.433
63.3	6.593
63.52	16.834
63.74	11.908
63.96	2.829
64.18	7.767
64.4	4.771
64.62	6.593
64.84	7.608
65.06	14.15
65.28	7.421
65.5	11.414
65.72	7.633
65.94	1.887
66.16	4.778
66.38	4.177
66.6	2.823
66.82	4.086
67.04	0.966
67.26	4.757
67.48	18.427
67.7	9.951
67.92	4.679
68.14	11.656
68.36	5.116
68.58	0.186
68.8	2.708
69.02	4.571
69.24	8.32
69.46	9.335
69.68	8.31
69.9	2.386
70.12	14.599
70.34	7.134
70.56	1.229
70.78	0.472
71	7.779
71.22	19.048
71.44	2.191
71.66	1.131
71.88	7.119
72.1	4.208
72.32	13.06
72.54	1.46
72.76	20.917
72.98	15.658
73.2	15.523
73.42	7.557
73.64	6.34
73.86	9.208
74.08	13.188
74.3	3.19
74.52	1.118
74.74	4.134
74.96	13.077
75.18	5.66
75.4	4.64
75.62	2.844
75.84	8.066
76.06	11.252
76.28	3.457
76.5	7.571
76.72	6.046
76.94	4.384
77.16	8.449
77.38	6.286
77.6	3.838
77.82	7.969
78.04	11.82
78.26	0.421
78.48	6.5
78.7	6.556
78.92	0.276
79.14	4.36
79.36	4.135
79.58	7.464
79.8	3.422
80.02	4.594
80.24	11.633
80.46	2.781
80.68	1.777
80.9	11.764
81.12	13.554
81.34	1.53
81.56	5.764
81.78	1.622
82	1.721
82.22	0.632
82.44	4.682
82.66	4.722
82.88	7.588
83.1	0.695
83.32	9.759
83.54	1.868
83.76	5.036
83.98	5.827
84.2	11.973
84.42	8.812
84.64	1.767
84.86	8.835
85.08	8.007
85.3	4.982
85.52	9.026
85.74	9.958
85.96	3.863
86.18	3.305
86.4	2.892
86.62	4.567
86.84	3.382
87.06	8.208
87.28	14.789
87.5	0.495
87.72	11.42
87.94	6.206
88.16	0.116
88.38	7.474
88.6	15.737
88.82	9.577
89.04	13.76
89.26	17.205
89.48	4.816
89.7	12.946
89.92	0.187
