Measurement: Powder, Xray Data XY Processed
Mineral: Manganilvaite
Rruff sample: R070334
Ideal chemistry: CaFe^2+^Fe^3+^Mn^2+^(Si_2_O_7_)O(OH)
Locality: First Sovetskiy mine, Dalnegorsk, Far East of Russia
Source: Michael Scott
Description: Black prismatic crystal
Diffraction sample description: Powder
Cell parameters: a: 12.994(4) b: 8.852(1) c: 5.8427(4) alpha: 90 beta: 89.95(4) gamma: 90 volume: 672.0(2) crystal system: monoclinic
x	intensity
5	0
5.22	33.8777
5.44	18.7826
5.66	19.1704
5.88	14.9688
6.1	32.8206
6.32	21.8359
6.54	20.145
6.76	16.8699
6.98	28.3369
7.2	14.6891
7.42	39.7024
7.64	29.4177
7.86	14.4982
8.08	5.51885
8.3	17.713
8.52	22.8826
8.74	3.60468
8.96	16.3725
9.18	10.1592
9.4	16.4163
9.62	24.9626
9.84	23.6712
10.06	19.9635
10.28	50.6955
10.5	15.0927
10.72	5.72711
10.94	26.247
11.16	0.241425
11.38	23.3298
11.6	24.7771
11.82	17.9344
12.04	48.0865
12.26	18.3704
12.48	24.6921
12.7	9.65037
12.92	30.262
13.14	38.9483
13.36	10.8658
13.58	52.8805
13.8	20.9096
14.02	22.257
14.24	12.3261
14.46	38.7894
14.68	25.1905
14.9	22.2325
15.12	23.9674
15.34	18.8054
15.56	42.949
15.78	21.7201
16	16.3824
16.22	5.28822
16.44	15.8444
16.66	10.3714
16.88	3.64931
17.1	4.70847
17.32	3.66811
17.54	10.1976
17.76	13.9018
17.98	5.41409
18.2	26.2758
18.42	28.797
18.64	6.05881
18.86	14.6395
19.08	10.1351
19.3	17.5768
19.52	41.5071
19.74	21.6793
19.96	14.0968
20.18	21.2779
20.4	41.7735
20.62	35.5404
20.84	11.5457
21.06	29.904
21.28	37.1333
21.5	20.2313
21.72	14.6962
21.94	6.82684
22.16	20.8929
22.38	29.8934
22.6	21.399
22.82	33.673
23.04	10.0106
23.26	16.8327
23.48	11.104
23.7	41.896
23.92	1.05037
24.14	28.8523
24.36	27.2593
24.58	10.0781
24.8	36.0553
25.02	16.7073
25.24	13.4785
25.46	12.5991
25.68	29.3664
25.9	31.5807
26.12	44.0749
26.34	7.55069
26.56	16.7878
26.78	11.1964
27	27.1737
27.22	2.66115
27.44	54.8429
27.66	32.2722
27.88	19.6804
28.1	11.0385
28.32	4.1046
28.54	10.3079
28.76	8.71951
28.98	7.79947
29.2	28.7673
29.42	14.8638
29.64	29.5126
29.86	10.1201
30.08	50.2991
30.3	31.3959
30.52	1.06838
30.74	10.1386
30.96	24.911
31.18	55.9218
31.4	25.0834
31.62	95.6047
31.84	2.37891
32.06	17.9382
32.28	39.2149
32.5	23.9684
32.72	62.1825
32.94	29.066
33.16	102.237
33.38	123.737
33.6	41.5849
33.82	5.35233
34.04	36.1706
34.26	50.301
34.48	0.979034
34.7	32.4475
34.92	34.6068
35.14	31.5577
35.36	10.4968
35.58	26.7568
35.8	23.5835
36.02	21.9467
36.24	26.8883
36.46	7.41484
36.68	7.03369
36.9	101.849
37.12	35.6552
37.34	24.6918
37.56	45.8244
37.78	18.3681
38	22.3689
38.22	14.7087
38.44	24.7927
38.66	61.0054
38.88	0.535995
39.1	33.8502
39.32	19.721
39.54	18.7599
39.76	18.2871
39.98	16.0557
40.2	26.5495
40.42	24.4801
40.64	22.7222
40.86	24.7346
41.08	10.095
41.3	13.1764
41.52	61.7226
41.74	36.1543
41.96	19.3995
42.18	11.6754
42.4	19.8021
42.62	22.2406
42.84	69.2311
43.06	39.6042
43.28	27.2577
43.5	11.8126
43.72	19.5048
43.94	25.5023
44.16	22.7698
44.38	14.9823
44.6	8.27534
44.82	33.5191
45.04	0.887894
45.26	25.9178
45.48	13.8138
45.7	29.1619
45.92	17.0763
46.14	45.4373
46.36	30.8874
46.58	17.2282
46.8	11.6574
47.02	14.7631
47.24	0.233063
47.46	3.86594
47.68	13.8448
47.9	46.7892
48.12	26.5953
48.34	13.2636
48.56	24.8437
48.78	39.6412
49	15.9876
49.22	15.4498
49.44	48.6781
49.66	18.8439
49.88	23.9658
50.1	34.7269
50.32	20.1871
50.54	17.0782
50.76	38.4082
50.98	32.3551
51.2	10.2915
51.42	14.2801
51.64	34.8247
51.86	21.6728
52.08	4.20569
52.3	16.7101
52.52	42.5645
52.74	3.19336
52.96	17.1766
53.18	27.9069
53.4	44.071
53.62	1.92023
53.84	21.9049
54.06	12.3995
54.28	7.77148
54.5	2.59125
54.72	25.281
54.94	40.0304
55.16	13.4031
55.38	3.94173
55.6	51.8086
55.82	17.563
56.04	28.059
56.26	34.3996
56.48	39.1754
56.7	47.9089
56.92	0.752731
57.14	2.27683
57.36	2.84399
57.58	32.9507
57.8	20.2159
58.02	26.8948
58.24	70.0335
58.46	26.8405
58.68	29.9379
58.9	25.6648
59.12	11.8995
59.34	2.66963
59.56	26.0369
59.78	14.7457
60	23.1632
60.22	9.66702
60.44	6.86719
60.66	37.1735
60.88	25.4208
61.1	26.6911
61.32	30.2132
61.54	6.16801
61.76	17.716
61.98	48.9932
62.2	13.8757
62.42	37.3075
62.64	25.3307
62.86	8.21948
63.08	89.6924
63.3	35.9504
63.52	14.988
63.74	49.464
63.96	20.3006
64.18	16.9472
64.4	14.7699
64.62	12.3713
64.84	22.5429
65.06	23.523
65.28	7.27812
65.5	31.1052
65.72	42.3165
65.94	50.0182
66.16	17.165
66.38	12.5401
66.6	14.9688
66.82	0.256409
67.04	48.304
67.26	1.74737
67.48	38.9714
67.7	19.3287
67.92	25.0876
68.14	40.4826
68.36	21.4918
68.58	32.9758
68.8	49.7266
69.02	6.07851
69.24	27.5044
69.46	23.3562
69.68	2.32446
69.9	5.68333
70.12	18.9124
70.34	18.517
70.56	1.85986
70.78	19.3369
71	20.4064
71.22	32.5224
71.44	46.8002
71.66	3.11925
71.88	19.4641
72.1	16.4924
72.32	26.2141
72.54	15.0526
72.76	11.5387
72.98	10.3544
73.2	18.4371
73.42	16.0521
73.64	22.5008
73.86	33.2171
74.08	6.99953
74.3	52.7107
74.52	7.84358
74.74	14.9972
74.96	35.9717
75.18	7.71843
75.4	19.2458
75.62	24.6723
75.84	27.5676
76.06	46.0154
76.28	18.2319
76.5	27.3552
76.72	5.90566
76.94	49.9686
77.16	11.1718
77.38	45.5523
77.6	20.4169
77.82	32.194
78.04	20.4401
78.26	9.14951
78.48	19.4195
78.7	19.8906
78.92	4.72241
79.14	17.1588
79.36	15.4933
79.58	15.0001
79.8	7.66087
80.02	17.5132
80.24	31.7328
80.46	19.759
80.68	23.1628
80.9	27.2705
81.12	29.5964
81.34	25.6228
81.56	1.1292
81.78	40.1995
82	30.9223
82.22	16.0538
82.44	26.5279
82.66	3.8576
82.88	9.59538
83.1	21.464
83.32	23.8657
83.54	19.8292
83.76	7.01747
83.98	3.21988
84.2	26.3771
84.42	0.361115
84.64	6.01628
84.86	33.0861
85.08	34.4063
85.3	22.5343
85.52	15.948
85.74	11.891
85.96	9.00084
86.18	15.5268
86.4	30.3108
86.62	10.1319
86.84	4.03742
87.06	2.27638
87.28	17.2462
87.5	14.1673
87.72	20.8291
87.94	55.3622
88.16	16.7396
88.38	26.9768
88.6	2.91274
88.82	29.2742
89.04	26.0973
89.26	42.9324
89.48	14.3687
89.7	32.8879
89.92	29.5487
