Measurement: Powder, Xray Data XY Processed
Mineral: Manganoneptunite
Rruff sample: R060901
Ideal chemistry: KNa_2_LiMn^2+^_2_Ti^4+^_2_Si_8_O_24_
Locality: Mont St. Hilaire, Quebec, Canada
Source: Royal Ontario Museum
Description: Dark reddish-brown single crystal cleavage fragment.
Diffraction sample description: Powder
Measured chemistry: (K_0.92_Na_0.08_)_Σ=1_Na_2.00_Li_1.00_(Mn^2+^_1.44_Zn_0.25_Mg_0.20_Fe^3+^_0.11_)_Σ=2_(Ti_1.89_Fe^3+^_0.08_Al_0.03_)_Σ=2_Si_8.00_O_24_ ; Li not measured but estimated by difference and stoichiometry; Fe as Fe3 by charge balance
Cell parameters: a: 16.4671(5) b: 12.523(1) c: 10.0245(8) alpha: 90 beta: 115.439(3) gamma: 90 volume: 1866.8(1) crystal system: monoclinic
x	intensity
5	0
5.22	3.38165
5.44	0.01092
5.66	5.67161
5.88	21.359
6.1	0.620552
6.32	24.4749
6.54	0.842466
6.76	9.08323
6.98	3.69856
7.2	11.8964
7.42	7.09625
7.64	12.3615
7.86	9.55516
8.08	9.53932
8.3	13.6621
8.52	7.28451
8.74	5.34928
8.96	8.58061
9.18	93.8802
9.4	13.8886
9.62	1.16515
9.84	12.262
10.06	2.62371
10.28	8.98352
10.5	0.479452
10.72	10.7087
10.94	1.44855
11.16	0.238852
11.38	26.4398
11.6	2.71392
11.82	15.1651
12.04	8.64404
12.26	8.66214
12.48	0.249071
12.7	16.8247
12.92	6.80896
13.14	8.11922
13.36	10.5289
13.58	11.3401
13.8	7.3395
14.02	8.33675
14.24	5.1846
14.46	10.318
14.68	6.5141
14.9	4.03798
15.12	6.1727
15.34	6.31956
15.56	11.3806
15.78	6.94574
16	3.1196
16.22	13.8817
16.44	1.11494
16.66	7.88407
16.88	7.74179
17.1	8.70726
17.32	4.28506
17.54	15.1938
17.76	13.2114
17.98	8.88174
18.2	11.5358
18.42	22.3385
18.64	7.63931
18.86	3.11839
19.08	2.1703
19.3	13.7158
19.52	14.6015
19.74	12.4898
19.96	1.61361
20.18	13.0066
20.4	3.55135
20.62	5.86039
20.84	3.99143
21.06	11.7755
21.28	12.8924
21.5	9.9495
21.72	2.3289
21.94	0.649157
22.16	18.3961
22.38	5.62758
22.6	5.97082
22.82	4.01987
23.04	20.9985
23.26	13.0801
23.48	9.27396
23.7	9.05227
23.92	13.89
24.14	8.44081
24.36	7.22914
24.58	4.99883
24.8	14.8051
25.02	10.2474
25.24	152.289
25.46	10.8793
25.68	7.51253
25.9	10.901
26.12	10.6285
26.34	8.29585
26.56	7.29625
26.78	1.00882
27	20.5889
27.22	5.43347
27.44	2.42748
27.66	4.77945
27.88	79.6793
28.1	12.5376
28.32	4.66646
28.54	1.04801
28.76	7.29919
28.98	5.09465
29.2	12.0293
29.42	42.944
29.64	4.56545
29.86	7.10871
30.08	1.17464
30.3	105.02
30.52	8.90799
30.74	29.9555
30.96	57.6414
31.18	4.98176
31.4	61.2117
31.62	2.36452
31.84	2.35534
32.06	5.3088
32.28	24.944
32.5	5.21312
32.72	53.5585
32.94	8.07006
33.16	1.34911
33.38	9.62984
33.6	6.87696
33.82	1.88604
34.04	6.97879
34.26	8.9197
34.48	6.16706
34.7	5.99992
34.92	5.91176
35.14	19.8276
35.36	10.4578
35.58	8.70608
35.8	1.53071
36.02	33.6266
36.24	39.5547
36.46	7.50877
36.68	13.7655
36.9	13.1116
37.12	2.11259
37.34	11.0064
37.56	12.1565
37.78	12.1372
38	8.81592
38.22	3.38159
38.44	13.0815
38.66	10.0929
38.88	15.9843
39.1	17.5307
39.32	9.52801
39.54	2.41406
39.76	0.824415
39.98	3.70699
40.2	14.8272
40.42	8.90151
40.64	1.92741
40.86	1.03623
41.08	13.8711
41.3	11.5263
41.52	70.8896
41.74	11.8666
41.96	10.6362
42.18	0.753437
42.4	4.09809
42.62	12.9494
42.84	12.9728
43.06	8.84464
43.28	19.6919
43.5	30.3329
43.72	10.5188
43.94	23.7349
44.16	11.7011
44.38	9.71893
44.6	4.83046
44.82	5.89168
45.04	15.157
45.26	7.56675
45.48	5.82192
45.7	23.8846
45.92	12.9359
46.14	25.4036
46.36	2.46048
46.58	3.47176
46.8	3.0117
47.02	4.15697
47.24	30.4271
47.46	30.147
47.68	19.0919
47.9	0.495346
48.12	4.0461
48.34	0.593483
48.56	11.6317
48.78	12.9175
49	5.19677
49.22	0.308403
49.44	2.62744
49.66	12.5681
49.88	20.0814
50.1	7.97348
50.32	15.6888
50.54	9.48927
50.76	3.31655
50.98	2.31749
51.2	2.18874
51.42	9.23358
51.64	13.2811
51.86	25.6345
52.08	11.7486
52.3	8.25637
52.52	4.70097
52.74	11.6272
52.96	10.5212
53.18	1.34233
53.4	1.12456
53.62	7.42754
53.84	9.90253
54.06	11.4877
54.28	0.152817
54.5	7.47581
54.72	7.55568
54.94	1.24621
55.16	15.6264
55.38	4.69769
55.6	22.1738
55.82	12.41
56.04	17.1154
56.26	3.25695
56.48	8.6503
56.7	1.71445
56.92	15.2954
57.14	17.0614
57.36	6.9456
57.58	11.6507
57.8	5.57232
58.02	14.145
58.24	20.2308
58.46	4.14291
58.68	7.4297
58.9	6.13355
59.12	16.2003
59.34	3.41449
59.56	2.83422
59.78	11.2222
60	5.44621
60.22	0.746424
60.44	2.8533
60.66	1.71118
60.88	7.73078
61.1	12.4697
61.32	9.50313
61.54	40.2037
61.76	1.25121
61.98	3.90662
62.2	6.5285
62.42	9.38767
62.64	5.27765
62.86	7.19802
63.08	0.800055
63.3	9.28539
63.52	5.38678
63.74	2.34665
63.96	4.39618
64.18	2.25961
64.4	0.247015
64.62	10.1388
64.84	4.53001
65.06	13.8412
65.28	11.998
65.5	12.116
65.72	1.88646
65.94	0.110075
66.16	13.6126
66.38	2.42232
66.6	6.24359
66.82	1.13399
67.04	26.7914
67.26	5.25346
67.48	10.2695
67.7	9.25488
67.92	6.1146
68.14	11.0822
68.36	3.33944
68.58	9.95977
68.8	6.37871
69.02	10.649
69.24	11.165
69.46	0.897114
69.68	10.8467
69.9	2.97767
70.12	10.0574
70.34	11.236
70.56	7.58324
70.78	5.67286
71	2.40192
71.22	7.56198
71.44	6.71455
71.66	5.88141
71.88	1.58335
72.1	0.266575
72.32	1.84816
72.54	1.8792
72.76	12.6807
72.98	9.72301
73.2	5.71171
73.42	11.4505
73.64	9.52163
73.86	1.27793
74.08	15.424
74.3	8.327
74.52	11.1854
74.74	13.0551
74.96	6.11293
75.18	5.39578
75.4	3.99341
75.62	5.79825
75.84	5.73025
76.06	0.424191
76.28	11.0343
76.5	5.90397
76.72	19.1619
76.94	7.38666
77.16	10.4099
77.38	12.2885
77.6	1.02754
77.82	2.82167
78.04	6.54257
78.26	7.67596
78.48	11.868
78.7	5.12237
78.92	11.0929
79.14	2.08553
79.36	5.10377
79.58	9.38207
79.8	12.347
80.02	2.92571
80.24	11.6067
80.46	7.66106
80.68	18.7242
80.9	1.18365
81.12	4.18169
81.34	3.81326
81.56	12.5498
81.78	7.66258
82	11.4676
82.22	2.48327
82.44	9.42538
82.66	15.045
82.88	0.029824
83.1	8.93832
83.32	3.512
83.54	16.5239
83.76	10.4799
83.98	3.64302
84.2	2.35688
84.42	8.59475
84.64	2.53858
84.86	18.6681
85.08	11.5835
85.3	11.5063
85.52	6.61252
85.74	9.54458
85.96	0.59895
86.18	10.8253
86.4	9.36585
86.62	3.20931
86.84	9.31164
87.06	20.4405
87.28	13.2754
87.5	0.091995
87.72	0.99225
87.94	3.25188
88.16	2.36889
88.38	13.2509
88.6	11.067
88.82	3.34374
89.04	7.27488
89.26	4.3946
89.48	17.9269
89.7	10.4532
89.92	7.03859
