Measurement: Powder, Xray Data XY Processed
Mineral: Manganogrunerite
Rruff sample: R060378
Ideal chemistry: [box]Mn^2+^_2_Fe^2+^_5_Si_8_O_22_(OH)_2_
Locality: Brunsjogruvan (Brunsjo mine), near Hallefors, Orebro, Sweden
Source: Michael Scott
Description: Brown parallel fibers
Diffraction sample description: Powder
Measured chemistry: Mn^2+^_2.00_(Fe^2+^_3.30_Mg_1.60_Ca_0.10_)_Î£=5_Si_8.00_O_22_(OH)_2_
Cell parameters: a: 9.6153(5) b: 18.2653(9) c: 5.3338(2) alpha: 90. beta: 102.265(5) gamma: 90. volume: 915.39(4) crystal system: monoclinic
x	intensity
5	0
5.22	3.189
5.44	22.135
5.66	11.965
5.88	26.325
6.1	17.046
6.32	21.194
6.54	10.521
6.76	12.316
6.98	14.666
7.2	14.273
7.42	18.759
7.64	17.72
7.86	18.741
8.08	3.114
8.3	14.009
8.52	12.656
8.74	27.148
8.96	12.149
9.18	11.279
9.4	11.078
9.62	21.481
9.84	3.134
10.06	9.546
10.28	16.271
10.5	44.446
10.72	21.914
10.94	19.075
11.16	10.286
11.38	18.208
11.6	1.159
11.82	14.364
12.04	26.228
12.26	44.353
12.48	0.91
12.7	18.958
12.92	2.343
13.14	3.042
13.36	2.474
13.58	17.86
13.8	7.044
14.02	12.404
14.24	17.376
14.46	14.034
14.68	20.789
14.9	12.947
15.12	15.519
15.34	16.923
15.56	27.597
15.78	14.498
16	27.162
16.22	7.786
16.44	11.12
16.66	18.06
16.88	3.821
17.1	27.466
17.32	10.507
17.54	8.698
17.76	11.64
17.98	15.991
18.2	23.992
18.42	3.132
18.64	14.357
18.86	18.431
19.08	1.919
19.3	10.41
19.52	24.6
19.74	1.042
19.96	5.715
20.18	28.716
20.4	8.132
20.62	19.164
20.84	13.397
21.06	24.691
21.28	33.522
21.5	13.589
21.72	20.198
21.94	28.107
22.16	4.091
22.38	10.274
22.6	15.309
22.82	17.188
23.04	10.131
23.26	15.676
23.48	10.445
23.7	36.355
23.92	19.526
24.14	2.586
24.36	22.411
24.58	12.2
24.8	16.324
25.02	10.132
25.24	0.765
25.46	16.871
25.68	35.13
25.9	17.161
26.12	23.021
26.34	10.355
26.56	16.941
26.78	1.055
27	34.184
27.22	69.807
27.44	9.795
27.66	9.536
27.88	0.469
28.1	4.459
28.32	19.187
28.54	13.821
28.76	18.891
28.98	115.833
29.2	24.124
29.42	21.338
29.64	25.463
29.86	57.431
30.08	26.931
30.3	34.469
30.52	14.551
30.74	12.955
30.96	14.16
31.18	0.741
31.4	2.123
31.62	3.513
31.84	7.091
32.06	8.023
32.28	40.643
32.5	84.541
32.72	6.518
32.94	5.15
33.16	16.323
33.38	9.605
33.6	27.143
33.82	8.365
34.04	25.471
34.26	23.844
34.48	13.944
34.7	13.076
34.92	7.101
35.14	8.884
35.36	12.022
35.58	30.764
35.8	5.515
36.02	16.407
36.24	16.042
36.46	18.492
36.68	12.286
36.9	23.796
37.12	2.987
37.34	19.457
37.56	1.373
37.78	8.756
38	5.403
38.22	19.412
38.44	13.364
38.66	3.995
38.88	35.193
39.1	19.42
39.32	13.597
39.54	2.269
39.76	25.109
39.98	18.453
40.2	36.584
40.42	8.359
40.64	14.109
40.86	21.161
41.08	39.831
41.3	11.781
41.52	15.224
41.74	7.321
41.96	29.63
42.18	6.286
42.4	13.247
42.62	34.758
42.84	28.456
43.06	15.454
43.28	29.237
43.5	26.189
43.72	11.846
43.94	0.145
44.16	17.483
44.38	11.73
44.6	13.12
44.82	12.092
45.04	12.526
45.26	7.042
45.48	26.403
45.7	7.984
45.92	10.905
46.14	13.857
46.36	28.822
46.58	3.614
46.8	6.136
47.02	5.14
47.24	16.007
47.46	17.967
47.68	13.689
47.9	2.821
48.12	26.898
48.34	17.938
48.56	20.76
48.78	19.436
49	12.481
49.22	30.586
49.44	3.436
49.66	12.739
49.88	12.415
50.1	19.741
50.32	11.132
50.54	1.682
50.76	28.589
50.98	16.475
51.2	14.129
51.42	25.684
51.64	2.085
51.86	9.758
52.08	18.725
52.3	2.425
52.52	26.012
52.74	24.743
52.96	14.894
53.18	17.735
53.4	7.183
53.62	1.311
53.84	23.009
54.06	14.882
54.28	13.784
54.5	10.302
54.72	23.751
54.94	15.859
55.16	43.917
55.38	24.922
55.6	4.497
55.82	13.846
56.04	14.555
56.26	7.518
56.48	3.442
56.7	18.783
56.92	13.116
57.14	2.766
57.36	11.385
57.58	17.967
57.8	23.765
58.02	27.545
58.24	36.199
58.46	13.446
58.68	16.972
58.9	13.07
59.12	26.855
59.34	6.547
59.56	9.22
59.78	20.484
60	2.977
60.22	11.911
60.44	14.787
60.66	14.612
60.88	26.453
61.1	22.049
61.32	23.848
61.54	8.203
61.76	22.237
61.98	12.415
62.2	18.461
62.42	26.456
62.64	2.564
62.86	0.405
63.08	14.587
63.3	6.285
63.52	18.77
63.74	15.14
63.96	4.974
64.18	17.216
64.4	14.241
64.62	21.702
64.84	9.222
65.06	4.078
65.28	24.568
65.5	10.525
65.72	1.643
65.94	7.903
66.16	28.296
66.38	4.402
66.6	18.283
66.82	4.695
67.04	21.351
67.26	17.263
67.48	4.329
67.7	1.481
67.92	1.171
68.14	4.8
68.36	2.605
68.58	7.856
68.8	15.083
69.02	12.296
69.24	19.346
69.46	20.685
69.68	13.624
69.9	8.734
70.12	5.509
70.34	20.522
70.56	23.173
70.78	19.783
71	17.195
71.22	36.976
71.44	15.755
71.66	3.56
71.88	11.285
72.1	17.227
72.32	17.351
72.54	33.342
72.76	14.317
72.98	16.345
73.2	20.743
73.42	8.988
73.64	0.572
73.86	18.272
74.08	11.322
74.3	21.249
74.52	14.531
74.74	2.008
74.96	11.328
75.18	12.696
75.4	12.086
75.62	14.036
75.84	1.809
76.06	7.309
76.28	23.85
76.5	2.079
76.72	11.838
76.94	16.506
77.16	13.906
77.38	14.2
77.6	5.811
77.82	12.307
78.04	1.268
78.26	13.661
78.48	12.763
78.7	13.093
78.92	14.374
79.14	15.634
79.36	8.276
79.58	14.568
79.8	22.342
80.02	6.572
80.24	8.058
80.46	2.809
80.68	20.674
80.9	15.614
81.12	9.238
81.34	13.056
81.56	31.968
81.78	4.799
82	25.159
82.22	9.62
82.44	12.813
82.66	29.607
82.88	8.135
83.1	12.436
83.32	22.357
83.54	19.035
83.76	14.523
83.98	7.248
84.2	8.984
84.42	13.579
84.64	11.302
84.86	22.255
85.08	16.574
85.3	13.418
85.52	8.536
85.74	31.44
85.96	9.842
86.18	14.345
86.4	18.153
86.62	21.983
86.84	41.363
87.06	20.077
87.28	9.907
87.5	15.168
87.72	18.272
87.94	6.939
88.16	25.263
88.38	18.574
88.6	6.932
88.82	12.726
89.04	18.121
89.26	18.652
89.48	5.257
89.7	6.339
89.92	20.666
