Measurement: Powder, Xray Data XY Processed
Mineral: Manjiroite
Rruff sample: R060379
Ideal chemistry: Na(Mn^4+^_7_Mn^3+^)O_16_
Locality: Wessels mine, Kalahari Manganese Field, South Africa
Source: Michael Scott
Description: Steel gray bed of parallel fibers
Diffraction sample description: Powder, using Mo radiation
Measured chemistry: (Na_0.60_K_0.28_Ca_0.12_)_Σ=1_(Mn^4+^_7.40_Mn^2+^_0.44_Mg_0.11_Si_0.03_Al_0.02_)_Σ=8_O_16_·2H_2_O
Cell parameters: a: 9.970(5) b: 9.970(5) c: 2.8613(6) alpha: 90 beta: 90 gamma: 90 volume: 284.4(3) crystal system: tetragonal
x	intensity
7.31	0
7.46	2.8493
7.61	3.94986
7.76	9.59332
7.91	16.4853
8.06	24.9178
8.21	20.8005
8.36	26.0298
8.51	26.7215
8.66	10.734
8.81	2.24264
8.96	13.9125
9.11	20.1391
9.26	18.8592
9.41	16.0411
9.56	9.40192
9.71	19.8879
9.86	0.00869
10.01	9.13334
10.16	16.6088
10.31	9.94603
10.46	4.52402
10.61	15.3573
10.76	2.7194
10.91	7.44477
11.06	2.96209
11.21	13.3604
11.36	1.22568
11.51	4.25945
11.66	12.5493
11.81	5.54686
11.96	4.60952
12.11	4.43496
12.26	1.19038
12.41	5.66502
12.56	13.3022
12.71	20.2498
12.86	17.8802
13.01	17.1617
13.16	11.9757
13.31	16.2004
13.46	6.86607
13.61	7.04497
13.76	4.09023
13.91	10.6161
14.06	5.0461
14.21	9.24323
14.36	2.85462
14.51	5.7468
14.66	6.28987
14.81	5.83872
14.96	5.95843
15.11	1.3142
15.26	1.48091
15.41	0.379677
15.56	2.46245
15.71	1.07436
15.86	1.78233
16.01	1.26792
16.16	2.35607
16.31	0.149178
16.46	8.24892
16.61	22.0115
16.76	56.8318
16.91	108.589
17.06	141.238
17.21	114.19
17.36	60.1004
17.51	24.5179
17.66	13.0872
17.81	4.74047
17.96	5.33027
18.11	5.65373
18.26	1.52833
18.41	7.26906
18.56	9.52769
18.71	17.1735
18.86	19.251
19.01	22.0254
19.16	17.7331
19.31	10.876
19.46	5.96496
19.61	4.00002
19.76	2.12665
19.91	0.602139
20.06	0.834568
20.21	1.17179
20.36	1.05503
20.51	5.56733
20.66	6.88219
20.81	7.45346
20.96	4.13883
21.11	2.4128
21.26	2.36323
21.41	6.36465
21.56	6.60517
21.71	2.87025
21.86	2.84205
22.01	6.02322
22.16	13.3305
22.31	13.0559
22.46	11.869
22.61	8.84403
22.76	4.26397
22.91	4.74301
23.06	5.22915
23.21	1.77886
23.36	3.27037
23.51	2.80206
23.66	2.34024
23.81	3.33819
23.96	3.84077
24.11	5.6366
24.26	0.702297
24.41	3.81696
24.56	0.080212
24.71	3.11269
24.86	3.0354
25.01	1.16775
25.16	1.90804
25.31	0.905083
25.46	1.13433
25.61	0.613409
25.76	1.04547
25.91	1.72918
26.06	1.42538
26.21	0.518333
26.36	0.052839
26.51	0.167583
26.66	3.00476
26.81	2.34007
26.96	1.25192
27.11	2.43391
27.26	0.55406
27.41	0.889961
27.56	2.55544
27.71	2.71442
27.86	4.7591
28.01	1.85534
28.16	2.04497
28.31	2.734
28.46	8.33654
28.61	51.75
28.76	150.319
28.91	163.511
29.06	102.891
29.21	52.2073
29.36	49.4766
29.51	39.9158
29.66	29.3939
29.81	22.2583
29.96	28.5275
30.11	24.0296
30.26	17.471
30.41	10.535
30.56	5.30955
30.71	4.78322
30.86	3.22993
31.01	4.16332
31.16	4.5105
31.31	3.4991
31.46	12.3758
31.61	17.2972
31.76	17.0265
31.91	15.9468
32.06	7.88019
32.21	3.5723
32.36	6.1106
32.51	5.37936
32.66	0.912548
32.81	2.24831
32.96	1.76223
33.11	3.60027
33.26	4.30205
33.41	2.4855
33.56	3.32722
33.71	3.99635
33.86	10.0056
34.01	9.44418
34.16	4.60124
34.31	3.45785
34.46	0.879461
34.61	0.570366
34.76	0.747448
34.91	0.953432
35.06	0.775793
35.21	3.08909
35.36	0.835443
35.51	0.057802
35.66	1.7394
35.81	0.619738
35.96	1.98131
36.11	0.124569
36.26	0.587152
36.41	1.49469
36.56	0.514688
36.71	0.231379
36.86	0.49346
37.01	2.28745
37.16	0.615053
37.31	0.040386
37.46	0.60689
37.61	1.25576
37.76	1.59473
37.91	2.02493
38.06	0.904547
38.21	2.2958
38.36	2.15608
38.51	2.16295
38.66	2.45291
38.81	4.19329
38.96	2.26884
39.11	0.525692
39.26	1.36284
39.41	1.44735
39.56	0.918011
39.71	2.30624
39.86	0.185825
40.01	0.825491
40.16	2.00155
40.31	2.91629
40.46	2.18746
40.61	2.25728
40.76	1.44405
40.91	1.56743
41.06	1.69375
41.21	2.58586
41.36	3.04488
41.51	5.91404
41.66	4.09501
41.81	2.77004
41.96	5.05351
42.11	1.7757
42.26	1.96357
42.41	0.605118
42.56	1.62091
42.71	3.50672
42.86	1.47191
43.01	1.9753
43.16	0.244049
43.31	2.79848
43.46	1.94886
43.61	0.508621
43.76	1.24018
43.91	2.22892
44.06	1.52252
44.21	2.63568
44.36	5.60722
44.51	9.69962
44.66	26.3867
44.81	38.5907
44.96	40.1416
45.11	27.9735
45.26	12.72
45.41	9.47302
45.56	3.55307
45.71	3.54381
45.86	3.30436
46.01	4.08068
46.16	1.62911
46.31	4.53684
46.46	5.2116
46.61	2.40494
46.76	3.8966
46.91	4.38127
47.06	5.82042
47.21	5.62601
47.36	3.52766
47.51	3.86662
47.66	2.74607
47.81	2.67558
47.96	0.240301
48.11	1.37417
48.26	3.84397
48.41	1.5696
48.56	3.33374
48.71	4.82949
48.86	0.451399
49.01	1.6517
49.16	0.351097
49.31	3.2586
49.46	1.18576
49.61	1.47498
49.76	2.358
49.91	4.34767
50.06	2.79548
50.21	1.89075
50.36	2.74192
50.51	2.40276
50.66	1.64123
50.81	2.54797
50.96	1.754
51.11	2.63657
51.26	1.02655
51.41	2.07522
51.56	3.4958
51.71	1.42299
51.86	0.615955
52.01	3.56159
52.16	1.15568
52.31	4.25588
52.46	1.938
52.61	0.227451
52.76	3.51184
52.91	4.16342
53.06	1.8113
53.21	0.317801
53.36	7.06473
53.51	1.44007
53.66	4.26082
53.81	2.60787
53.96	3.00224
54.11	4.56214
54.26	4.38708
54.41	1.23413
54.56	1.99416
54.71	3.33868
54.86	3.01829
55.01	4.4595
55.16	3.1198
55.31	5.44266
55.46	3.96153
55.61	7.83961
55.76	1.76523
55.91	1.97036
56.06	4.35785
56.21	2.87913
56.36	4.17484
56.51	5.41176
56.66	0.830795
56.81	1.88967
56.96	3.64722
57.11	3.07102
57.26	3.42159
57.41	3.33681
57.56	0.779221
57.71	1.26311
57.86	1.61061
58.01	2.68093
58.16	2.83623
58.31	1.77836
58.46	4.70629
58.61	3.92013
58.76	3.9422
58.91	1.53978
59.06	1.86174
59.21	2.25639
59.36	10.8988
59.51	18.6546
59.66	17.2135
59.81	19.5596
59.96	20.4941
60.11	13.0366
60.26	6.97077
60.41	7.68232
60.56	3.765
60.71	1.54607
60.86	2.74312
61.01	1.06577
61.16	3.41844
61.31	1.29593
61.46	4.61324
61.61	0.960506
61.76	1.88806
61.91	0.11079
