Measurement: Powder, Xray Data XY Processed
Mineral: Margarite
Rruff sample: R060839
Ideal chemistry: CaAl_2_(Si_2_Al_2_)O_10_(OH)_2_
Locality: Old Emery mine, Chester, Massachusetts, USA
Source: Michael Scott
Description: Pale lilac mica associated with lilac colored axinite
Diffraction sample description: Powder
Measured chemistry: (Ca_0.83_Na_0.17_)_Σ=1_(Al_1.97_Fe^3+^_0.02_Mg_0.01_)_Σ=2_(Si_2.18_Al_1.82_)O_10_(OH)_2_
Cell parameters: a: 5.114(1) b: 8.872(3) c: 19.164(2) alpha: 90 beta: 95.51(2) gamma: 90 volume: 865.6(3) crystal system: monoclinic
x	intensity
5	0
5.22	18.3728
5.44	19.0266
5.66	12.5002
5.88	11.4049
6.1	12.5248
6.32	9.20429
6.54	15.3871
6.76	4.98048
6.98	9.49352
7.2	4.15894
7.42	5.80505
7.64	0.588154
7.86	0.788845
8.08	13.7292
8.3	0.785057
8.52	5.65246
8.74	16.934
8.96	0.582773
9.18	28.7357
9.4	29.9329
9.62	9.99633
9.84	3.30763
10.06	10.4141
10.28	3.34898
10.5	0.577536
10.72	4.61741
10.94	0.580746
11.16	6.14574
11.38	2.20915
11.6	8.45135
11.82	21.6952
12.04	13.5081
12.26	13.8603
12.48	10.8724
12.7	17.1781
12.92	18.7824
13.14	11.0293
13.36	13.5781
13.58	7.17156
13.8	7.23002
14.02	10.5757
14.24	18.4714
14.46	3.05873
14.68	13.7293
14.9	18.5735
15.12	10.624
15.34	5.65687
15.56	5.74582
15.78	15.073
16	7.20625
16.22	7.70386
16.44	12.3098
16.66	9.70621
16.88	15.1511
17.1	11.3337
17.32	14.6418
17.54	10.6612
17.76	5.73171
17.98	7.64685
18.2	5.68662
18.42	9.87138
18.64	57.2778
18.86	23.1752
19.08	2.76762
19.3	6.35941
19.52	2.76838
19.74	12.2142
19.96	9.14594
20.18	17.3005
20.4	11.9864
20.62	4.30452
20.84	5.51351
21.06	10.7048
21.28	2.47178
21.5	3.89976
21.72	4.40088
21.94	3.64734
22.16	18.891
22.38	7.21959
22.6	15.3155
22.82	10.2387
23.04	4.99692
23.26	6.04938
23.48	7.84513
23.7	2.67598
23.92	8.34149
24.14	0.977034
24.36	13.6956
24.58	7.44259
24.8	13.158
25.02	7.11857
25.24	12.7672
25.46	15.284
25.68	14.9294
25.9	9.09484
26.12	3.54954
26.34	29.8367
26.56	4.66024
26.78	0.529909
27	10.138
27.22	12.818
27.44	31.384
27.66	23.552
27.88	16.6006
28.1	682.702
28.32	20.1007
28.54	15.6058
28.76	42.3916
28.98	7.96253
29.2	2.36565
29.42	5.00301
29.64	1.46645
29.86	1.12543
30.08	11.5068
30.3	11.6238
30.52	2.9445
30.74	14.5722
30.96	47.4209
31.18	7.66545
31.4	19.5024
31.62	3.68977
31.84	6.72498
32.06	6.90432
32.28	22.211
32.5	0.670044
32.72	2.72695
32.94	8.85888
33.16	8.49353
33.38	22.7432
33.6	10.6619
33.82	18.4215
34.04	11.8084
34.26	2.84664
34.48	1.57758
34.7	6.86589
34.92	18.0553
35.14	10.6763
35.36	18.9718
35.58	42.0585
35.8	22.0841
36.02	15.9063
36.24	16.8829
36.46	9.97391
36.68	7.35513
36.9	11.5679
37.12	18.3386
37.34	35.7617
37.56	11.5828
37.78	6.62102
38	7.38429
38.22	13.7347
38.44	2.69436
38.66	3.352
38.88	9.61996
39.1	7.83598
39.32	12.4206
39.54	3.63471
39.76	7.5073
39.98	4.48319
40.2	19.6049
40.42	5.24112
40.64	4.69509
40.86	3.87237
41.08	17.4405
41.3	10.0607
41.52	0.795996
41.74	21.9839
41.96	11.2574
42.18	5.1835
42.4	7.05994
42.62	2.96853
42.84	18.3233
43.06	3.99079
43.28	22.233
43.5	11.4304
43.72	22.8754
43.94	18.2487
44.16	2.8562
44.38	5.24678
44.6	4.56548
44.82	2.26116
45.04	12.9067
45.26	4.80819
45.48	2.00811
45.7	16.4399
45.92	0.227194
46.14	12.7112
46.36	1.67293
46.58	9.63949
46.8	3.68291
47.02	12.9373
47.24	2.49965
47.46	12.4833
47.68	208.402
47.9	13.7388
48.12	10.005
48.34	2.06098
48.56	4.58426
48.78	9.13558
49	9.65964
49.22	4.13207
49.44	11.869
49.66	10.2136
49.88	15.389
50.1	7.22695
50.32	10.4806
50.54	8.55875
50.76	8.66113
50.98	11.0349
51.2	9.01619
51.42	6.94495
51.64	14.8873
51.86	9.6384
52.08	3.26688
52.3	3.9458
52.52	7.88308
52.74	10.9556
52.96	3.5547
53.18	3.72798
53.4	1.68006
53.62	4.70454
53.84	2.73833
54.06	3.71785
54.28	7.48723
54.5	8.40593
54.72	12.2885
54.94	17.3686
55.16	15.8528
55.38	6.03778
55.6	6.83533
55.82	3.70346
56.04	11.6418
56.26	12.6333
56.48	14.5366
56.7	3.40948
56.92	10.2112
57.14	4.83015
57.36	12.9934
57.58	13.9359
57.8	24.5956
58.02	37.8022
58.24	8.80213
58.46	5.93271
58.68	10.2829
58.9	6.55255
59.12	10.0999
59.34	12.435
59.56	3.48675
59.78	6.06524
60	0.465062
60.22	6.59533
60.44	4.46791
60.66	18.6714
60.88	3.3378
61.1	9.39821
61.32	6.23018
61.54	5.6421
61.76	5.22762
61.98	1.74794
62.2	14.1427
62.42	2.61607
62.64	14.1504
62.86	27.0946
63.08	10.226
63.3	24.1136
63.52	16.207
63.74	9.7117
63.96	3.68526
64.18	5.36358
64.4	3.86119
64.62	8.40916
64.84	6.28444
65.06	10.8156
65.28	9.32591
65.5	4.26963
65.72	2.79825
65.94	16.9707
66.16	0.756124
66.38	10.5692
66.6	7.51023
66.82	11.5484
67.04	15.5283
67.26	4.50972
67.48	3.51552
67.7	16.2792
67.92	10.0281
68.14	5.89541
68.36	9.18573
68.58	5.3551
68.8	17.1784
69.02	4.98705
69.24	6.91434
69.46	10.8031
69.68	7.33556
69.9	6.40927
70.12	9.3106
70.34	4.31273
70.56	2.47489
70.78	1.02165
71	4.94775
71.22	0.178256
71.44	7.81073
71.66	4.25315
71.88	3.60494
72.1	6.62032
72.32	4.89439
72.54	5.09931
72.76	6.1164
72.98	11.1029
73.2	15.2044
73.42	6.34442
73.64	7.66535
73.86	12.0325
74.08	8.44924
74.3	12.6709
74.52	18.8364
74.74	5.60452
74.96	0.48637
75.18	7.49029
75.4	1.75067
75.62	3.25339
75.84	6.40913
76.06	7.2644
76.28	6.04803
76.5	5.79203
76.72	3.93635
76.94	5.88266
77.16	0.12939
77.38	6.99466
77.6	8.14515
77.82	4.30996
78.04	3.25766
78.26	4.18613
78.48	7.24424
78.7	7.24472
78.92	7.17274
79.14	3.09535
79.36	0.9926
79.58	4.99829
79.8	9.92719
80.02	8.0519
80.24	10.0522
80.46	16.5702
80.68	16.2461
80.9	9.06811
81.12	0.074184
81.34	2.05498
81.56	4.86289
81.78	10.8704
82	6.09554
82.22	5.78441
82.44	9.80477
82.66	3.15199
82.88	6.67746
83.1	9.90268
83.32	9.09752
83.54	3.33459
83.76	0.456918
83.98	8.54644
84.2	10.4652
84.42	3.50269
84.64	13.6433
84.86	7.11809
85.08	6.74044
85.3	2.80393
85.52	5.82081
85.74	6.85008
85.96	10.9019
86.18	0.225084
86.4	3.30254
86.62	11.2265
86.84	9.28345
87.06	2.27946
87.28	4.98779
87.5	3.98233
87.72	13.8364
87.94	7.83671
88.16	6.72458
88.38	9.83127
88.6	11.6347
88.82	11.8006
89.04	11.9695
89.26	13.0156
89.48	3.48264
89.7	1.55139
89.92	13.726
