Measurement: Powder, Xray Data XY Processed
Mineral: Marialite
Rruff sample: R060458
Ideal chemistry: Na_4_Al_3_Si_9_O_24_Cl
Locality: Dading, Nepal
Source: Michael Scott
Description: Colorless elongated prism
Diffraction sample description: Powder
Measured chemistry: (Na_0.52_Ca_0.47_K_0.01_)_4_(Al_0.36_Si_0.64_)_12_O_24_(Cl_0.44_(CO_3_)_0.56_)
Cell parameters: a: 12.1006(2) b: 12.1006(2) c: 7.5770(1) alpha: 90. beta: 90. gamma: 90. volume: 1109.46(3) crystal system: tetragonal
x	intensity
5	0
5.22	14.0105
5.44	10.1146
5.66	16.2915
5.88	14.8629
6.1	7.99427
6.32	4.95584
6.54	12.8377
6.76	3.10986
6.98	18.515
7.2	0.105648
7.42	5.85574
7.64	7.11733
7.86	3.44219
8.08	3.81848
8.3	7.68071
8.52	2.55565
8.74	10.3366
8.96	2.99197
9.18	8.41194
9.4	10.684
9.62	10.7171
9.84	2.18888
10.06	6.12839
10.28	12.4814
10.5	5.93983
10.72	9.37053
10.94	3.55103
11.16	6.51546
11.38	2.77467
11.6	3.17589
11.82	5.19787
12.04	4.25665
12.26	3.38552
12.48	1.39939
12.7	2.08608
12.92	1.73341
13.14	9.07675
13.36	1.10276
13.58	2.07706
13.8	27.02
14.02	6.90348
14.24	3.97588
14.46	4.01977
14.68	105.134
14.9	8.28873
15.12	5.40256
15.34	5.66361
15.56	8.36514
15.78	0.443958
16	4.7923
16.22	3.125
16.44	7.17951
16.66	5.30772
16.88	4.2844
17.1	3.32299
17.32	2.26428
17.54	10.3146
17.76	0.172394
17.98	7.17006
18.2	6.01423
18.42	3.89318
18.64	6.65507
18.86	8.9406
19.08	7.88756
19.3	1.84644
19.52	4.07826
19.74	1.12567
19.96	1.10164
20.18	14.2342
20.4	5.29638
20.62	3.43878
20.84	22.4437
21.06	4.38522
21.28	7.33255
21.5	1.28931
21.72	6.2399
21.94	5.94679
22.16	0.860247
22.38	0.758305
22.6	3.703
22.82	1.64942
23.04	3.51992
23.26	144.708
23.48	12.4834
23.7	0.470504
23.92	6.32176
24.14	3.14073
24.36	2.91062
24.58	0.327345
24.8	6.47909
25.02	45.1396
25.24	10.7715
25.46	3.69231
25.68	76.5239
25.9	43.814
26.12	14.7269
26.34	6.15092
26.56	3.49235
26.78	1.86628
27	8.15871
27.22	5.38603
27.44	7.45889
27.66	5.43377
27.88	4.35052
28.1	6.97179
28.32	3.59534
28.54	7.35744
28.76	3.08076
28.98	13.9136
29.2	213.728
29.42	14.8784
29.64	130.017
29.86	3.3104
30.08	6.56814
30.3	3.74532
30.52	1.92429
30.74	3.07165
30.96	5.23855
31.18	7.36022
31.4	34.589
31.62	15.4981
31.84	4.29301
32.06	4.08336
32.28	7.89983
32.5	8.80216
32.72	25.8956
32.94	6.98939
33.16	29.177
33.38	113.403
33.6	5.83876
33.82	2.68226
34.04	4.86203
34.26	5.05233
34.48	0.382268
34.7	4.513
34.92	3.65481
35.14	9.86069
35.36	0.990751
35.58	3.79816
35.8	8.89806
36.02	2.5232
36.24	2.7338
36.46	7.95404
36.68	1.90697
36.9	3.6857
37.12	6.72979
37.34	6.75676
37.56	1.31816
37.78	5.48497
38	4.36725
38.22	2.19902
38.44	5.11287
38.66	3.83883
38.88	5.0059
39.1	82.0961
39.32	1.20504
39.54	13.2305
39.76	13.3287
39.98	3.15475
40.2	2.25383
40.42	4.28663
40.64	3.21777
40.86	3.15077
41.08	3.00193
41.3	2.49246
41.52	3.52357
41.74	1.51251
41.96	38.5071
42.18	5.26251
42.4	22.2919
42.62	3.2328
42.84	9.22701
43.06	0.558811
43.28	0.066169
43.5	7.16067
43.72	11.3212
43.94	3.25684
44.16	0.820111
44.38	6.19162
44.6	2.19737
44.82	4.31544
45.04	31.4144
45.26	4.71823
45.48	0.387087
45.7	2.37157
45.92	7.26365
46.14	0.069951
46.36	0.926327
46.58	0.755495
46.8	4.46958
47.02	1.30746
47.24	40.1489
47.46	24.1561
47.68	48.943
47.9	9.87732
48.12	27.7297
48.34	7.95826
48.56	4.14523
48.78	4.30504
49	9.48719
49.22	4.69759
49.44	6.96528
49.66	6.2839
49.88	17.6989
50.1	9.71255
50.32	7.86648
50.54	3.59067
50.76	3.71159
50.98	2.66868
51.2	6.57068
51.42	6.4577
51.64	2.31845
51.86	0.043476
52.08	12.8213
52.3	3.51029
52.52	28.3871
52.74	2.29481
52.96	4.24152
53.18	0.25904
53.4	0.512803
53.62	19.5943
53.84	12.9443
54.06	3.24854
54.28	4.35009
54.5	0.461846
54.72	18.5898
54.94	4.78499
55.16	5.86883
55.38	0.855316
55.6	6.64398
55.82	0.536778
56.04	3.52284
56.26	2.18706
56.48	1.89948
56.7	64.8042
56.92	1.68011
57.14	0.476726
57.36	5.50587
57.58	14.8541
57.8	5.86004
58.02	8.10613
58.24	6.1292
58.46	6.24512
58.68	2.53645
58.9	5.73655
59.12	52.7686
59.34	11.8303
59.56	4.9516
59.78	9.84318
60	3.37501
60.22	3.16398
60.44	7.17212
60.66	4.11318
60.88	3.2237
61.1	4.06017
61.32	13.1265
61.54	1.17716
61.76	4.12071
61.98	4.00636
62.2	1.95309
62.42	3.9791
62.64	4.98715
62.86	5.99069
63.08	5.21792
63.3	9.39541
63.52	27.4586
63.74	15.3955
63.96	13.5093
64.18	2.44121
64.4	0.403695
64.62	3.34659
64.84	1.30461
65.06	2.3544
65.28	3.19682
65.5	13.9938
65.72	1.87863
65.94	9.14508
66.16	5.85055
66.38	4.56063
66.6	9.5679
66.82	7.47911
67.04	5.41194
67.26	7.31644
67.48	17.1258
67.7	5.97388
67.92	8.09098
68.14	6.3018
68.36	3.86334
68.58	76.8594
68.8	31.8134
69.02	3.94566
69.24	1.97456
69.46	10.9622
69.68	7.97675
69.9	13.1389
70.12	8.3231
70.34	7.29089
70.56	1.87009
70.78	4.20568
71	0.45055
71.22	11.9277
71.44	24.2724
71.66	13.6807
71.88	6.03504
72.1	3.22017
72.32	2.25549
72.54	2.29755
72.76	4.27518
72.98	1.26678
73.2	5.15844
73.42	10.9357
73.64	8.39895
73.86	6.04105
74.08	2.88316
74.3	3.6746
74.52	3.45433
74.74	13.4182
74.96	8.39086
75.18	7.46035
75.4	20.4762
75.62	12.505
75.84	8.61097
76.06	2.76618
76.28	0.931605
76.5	3.38823
76.72	6.49379
76.94	7.65059
77.16	2.79687
77.38	2.04323
77.6	4.13019
77.82	5.06809
78.04	7.00797
78.26	2.13433
78.48	0.995127
78.7	4.68833
78.92	4.35538
79.14	3.29055
79.36	9.41241
79.58	5.44224
79.8	4.26695
80.02	5.2415
80.24	4.37841
80.46	1.47007
80.68	2.64151
80.9	2.69352
81.12	3.74224
81.34	6.12882
81.56	5.1396
81.78	1.02104
82	14.7871
82.22	14.7968
82.44	2.90271
82.66	2.89424
82.88	4.7293
83.1	1.53571
83.32	4.51801
83.54	13.7706
83.76	2.38631
83.98	1.2871
84.2	10.3349
84.42	2.41613
84.64	1.4657
84.86	5.23472
85.08	14.2311
85.3	5.30416
85.52	1.29509
85.74	2.32038
85.96	4.20798
86.18	7.29784
86.4	3.3635
86.62	3.66309
86.84	7.97512
87.06	4.94956
87.28	3.0759
87.5	2.15673
87.72	0.839227
87.94	2.79996
88.16	1.32866
88.38	4.2327
88.6	6.20091
88.82	5.08054
89.04	2.58655
89.26	2.54563
89.48	1.47893
89.7	4.9894
89.92	0.201532
