Measurement: Powder, Xray Data XY Processed
Mineral: Marialite
Rruff sample: R060297
Ideal chemistry: Na_4_Al_3_Si_9_O_24_Cl
Locality: Morogoro District, Marasi, Tanzania
Source: Herb Obodda
Description: Pale yellow crystal fragment
Diffraction sample description: Powder
Measured chemistry: (Na_0.66_Ca_0.29_K_0.06_)_4_(Si_0.68_Al_0.32_)_12_O_24_(Cl_0.70_(CO_3_)_0.30_)
Cell parameters: a: 12.0740(2) b: 12.0740(2) c: 7.5853(2) alpha: 90. beta: 90. gamma: 90. volume: 1105.79(4) crystal system: tetragonal
x	intensity
5	0
5.22	6.284
5.44	5.29
5.66	11.303
5.88	12.415
6.1	13.833
6.32	10.602
6.54	8.558
6.76	13.082
6.98	12.057
7.2	5.918
7.42	3.66
7.64	6.235
7.86	5.133
8.08	2.899
8.3	6.515
8.52	5.977
8.74	9.539
8.96	4.889
9.18	7.124
9.4	5.107
9.62	5.198
9.84	0.624
10.06	8.779
10.28	7.667
10.5	0.258
10.72	4.806
10.94	4.988
11.16	1.078
11.38	0.328
11.6	0.526
11.82	5.786
12.04	1.885
12.26	0.118
12.48	9.234
12.7	1.301
12.92	1.614
13.14	9.732
13.36	6.713
13.58	1.709
13.8	45.642
14.02	1.762
14.24	3.728
14.46	1.902
14.68	50.051
14.9	6.962
15.12	4.178
15.34	5.389
15.56	7.175
15.78	0.586
16	7.675
16.22	1.804
16.44	7.781
16.66	2.81
16.88	5.884
17.1	0.952
17.32	2.967
17.54	5.044
17.76	5.9
17.98	2.824
18.2	4.479
18.42	2.379
18.64	3.751
18.86	3.394
19.08	5.286
19.3	5.043
19.52	7.831
19.74	9.748
19.96	0.443
20.18	12.761
20.4	5.931
20.62	1.395
20.84	63.581
21.06	9.793
21.28	1.771
21.5	3.88
21.72	0.164
21.94	9.854
22.16	4.748
22.38	2.618
22.6	8.404
22.82	2.174
23.04	3.564
23.26	53.595
23.48	14.449
23.7	5.943
23.92	7.496
24.14	5.115
24.36	7.68
24.58	1.679
24.8	0.026
25.02	41.495
25.24	11.29
25.46	8.27
25.68	223.981
25.9	43.083
26.12	7.449
26.34	11.786
26.56	6.364
26.78	9.714
27	7.137
27.22	7.37
27.44	2.863
27.66	3.174
27.88	2.708
28.1	5.336
28.32	7.007
28.54	7.638
28.76	7.323
28.98	4.811
29.2	307.77
29.42	24.831
29.64	194.03
29.86	10.805
30.08	3.111
30.3	4.254
30.52	7.377
30.74	1.467
30.96	2.611
31.18	3.994
31.4	17.266
31.62	23.075
31.84	4.862
32.06	0.47
32.28	0.468
32.5	2.875
32.72	14.471
32.94	11.722
33.16	19.779
33.38	118.932
33.6	2.801
33.82	6.878
34.04	2.03
34.26	0.18
34.48	1.595
34.7	0.818
34.92	2.003
35.14	13.759
35.36	6.837
35.58	1.178
35.8	5.155
36.02	4.305
36.24	3.23
36.46	3.472
36.68	11.398
36.9	4.2
37.12	3.065
37.34	3.095
37.56	4.026
37.78	7.752
38	19.538
38.22	4.433
38.44	9.3
38.66	3.181
38.88	3.176
39.1	15.5
39.32	7.845
39.54	8
39.76	2.87
39.98	7.929
40.2	0.944
40.42	0.928
40.64	6.048
40.86	7.095
41.08	15.029
41.3	8.76
41.52	9.399
41.74	0.354
41.96	7.857
42.18	37.823
42.4	5.789
42.62	0.765
42.84	1.359
43.06	9.662
43.28	4.548
43.5	12.735
43.72	20.7
43.94	3.293
44.16	2.825
44.38	2.932
44.6	4.174
44.82	3.319
45.04	43.658
45.26	15.979
45.48	5.096
45.7	5.258
45.92	1.011
46.14	4.075
46.36	8.974
46.58	8.813
46.8	0.444
47.02	6.088
47.24	20.734
47.46	61.545
47.68	46.182
47.9	7.42
48.12	42.541
48.34	2.774
48.56	9.947
48.78	0.159
49	1.408
49.22	4.604
49.44	11.012
49.66	4.387
49.88	12.631
50.1	10.68
50.32	18.278
50.54	6.146
50.76	4.334
50.98	7.183
51.2	0.132
51.42	3.077
51.64	5.048
51.86	5.099
52.08	2.175
52.3	6.095
52.52	21.148
52.74	9.204
52.96	6.255
53.18	3.431
53.4	0.343
53.62	19.706
53.84	28.765
54.06	7.682
54.28	5.653
54.5	4.588
54.72	14.558
54.94	6.743
55.16	0.008
55.38	3.008
55.6	13.884
55.82	4.645
56.04	2.638
56.26	1.515
56.48	3.346
56.7	1.36
56.92	1.002
57.14	4.7
57.36	20.619
57.58	7.426
57.8	4.253
58.02	0.126
58.24	9.157
58.46	0.265
58.68	8.767
58.9	6.081
59.12	6.073
59.34	35.356
59.56	8.738
59.78	0.984
60	1.988
60.22	4.927
60.44	10.98
60.66	2.125
60.88	2.84
61.1	3.644
61.32	38.49
61.54	11.8
61.76	3.579
61.98	1.295
62.2	0.821
62.42	5.083
62.64	1.906
62.86	4.171
63.08	7.256
63.3	18.464
63.52	17.57
63.74	13.693
63.96	4.621
64.18	1.933
64.4	1.119
64.62	3.871
64.84	1.823
65.06	2.043
65.28	5.886
65.5	17.745
65.72	14.34
65.94	15.175
66.16	3.919
66.38	5.218
66.6	15.929
66.82	5.685
67.04	1.532
67.26	4.688
67.48	13.474
67.7	7.109
67.92	7.147
68.14	3.371
68.36	5.283
68.58	8.229
68.8	9.292
69.02	2.517
69.24	0.268
69.46	2.221
69.68	8.017
69.9	22.081
70.12	7.272
70.34	0.667
70.56	0.277
70.78	11.448
71	3.606
71.22	8.118
71.44	11.12
71.66	8.001
71.88	5.279
72.1	2.432
72.32	3.363
72.54	0.36
72.76	2.355
72.98	10.55
73.2	0.511
73.42	8.452
73.64	11.05
73.86	6.064
74.08	2.938
74.3	3.583
74.52	3.443
74.74	8.383
74.96	16.38
75.18	1.391
75.4	5.449
75.62	10.708
75.84	1.871
76.06	11.231
76.28	7.267
76.5	1.648
76.72	1.298
76.94	6.682
77.16	2.893
77.38	5.349
77.6	7.47
77.82	2.635
78.04	4.223
78.26	8.096
78.48	6.824
78.7	4.674
78.92	3.579
79.14	2.235
79.36	11.196
79.58	4.153
79.8	6.851
80.02	1.747
80.24	0.674
80.46	2.79
80.68	6.967
80.9	2.953
81.12	5.899
81.34	11.654
81.56	4.538
81.78	4.482
82	0.33
82.22	4.166
82.44	2.115
82.66	4.364
82.88	1.861
83.1	6.938
83.32	6.148
83.54	4.267
83.76	7.246
83.98	5.108
84.2	4.835
84.42	0.804
84.64	1.904
84.86	3.871
85.08	4.707
85.3	1.708
85.52	3.511
85.74	1.447
85.96	0.513
86.18	10.617
86.4	0.72
86.62	2.036
86.84	7.407
87.06	0.642
87.28	10.851
87.5	0.834
87.72	5.992
87.94	2.118
88.16	5.128
88.38	2.212
88.6	3.498
88.82	7.66
89.04	5.474
89.26	13.327
89.48	5.56
89.7	6.052
89.92	9.622
