Measurement: Powder, Xray Data XY Processed
Mineral: Masutomilite
Rruff sample: R061008
Ideal chemistry: KLiAlMn^2+^(Si_3_Al)O_10_(F,OH)_2_
Locality: Tanokamiyama, Shiga Prefecture, Japan
Source: Michael Scott
Description: Brownish purple mica fragment
Diffraction sample description: Powder
Cell parameters: a: 5.2777(4) b: 9.1148(5) c: 10.0934(1) alpha: 90 beta: 100.800(3) gamma: 90 volume: 476.95(4) crystal system: monoclinic
x	intensity
5	0
5.22	6.79068
5.44	13.9821
5.66	19.7807
5.88	33.0029
6.1	27.7443
6.32	26.2926
6.54	11.2322
6.76	10.4561
6.98	16.6806
7.2	7.28434
7.42	14.3467
7.64	19.4227
7.86	2.32939
8.08	49.6519
8.3	15.0516
8.52	24.157
8.74	68.5341
8.96	1895.28
9.18	21.841
9.4	5.86308
9.62	1.72629
9.84	17.8408
10.06	17.3946
10.28	5.61036
10.5	8.90476
10.72	3.04934
10.94	8.12825
11.16	6.23374
11.38	4.36711
11.6	11.9914
11.82	11.1574
12.04	8.99507
12.26	8.89266
12.48	17.9295
12.7	9.01185
12.92	16.9333
13.14	3.929
13.36	1.82445
13.58	8.15762
13.8	10.265
14.02	3.89657
14.24	3.05064
14.46	6.28816
14.68	13.36
14.9	10.6146
15.12	8.53304
15.34	16.7018
15.56	12.191
15.78	9.54824
16	9.83786
16.22	7.56147
16.44	9.80924
16.66	6.5676
16.88	7.95172
17.1	13.7384
17.32	2.7667
17.54	6.5069
17.76	5.23258
17.98	21.9514
18.2	3.15384
18.42	13.0373
18.64	2.94547
18.86	15.7736
19.08	11.7043
19.3	9.11188
19.52	9.14321
19.74	25.7657
19.96	0.581617
20.18	14.5428
20.4	9.80415
20.62	2.74561
20.84	6.36147
21.06	26.727
21.28	11.0347
21.5	7.72395
21.72	9.81904
21.94	2.12634
22.16	12.9816
22.38	17.359
22.6	17.7109
22.82	5.13849
23.04	21.0904
23.26	12.6364
23.48	0.613525
23.7	10.7941
23.92	16.9261
24.14	3.42019
24.36	61.8231
24.58	23.1095
24.8	22.1131
25.02	2.23337
25.24	4.81355
25.46	13.8213
25.68	6.91274
25.9	0.907791
26.12	11.3392
26.34	15.0235
26.56	38.1223
26.78	38.482
27	1568.77
27.22	44.5434
27.44	12.5722
27.66	5.84225
27.88	7.15418
28.1	8.39508
28.32	9.88011
28.54	12.3053
28.76	19.4938
28.98	40.8237
29.2	9.34863
29.42	4.24676
29.64	5.27846
29.86	3.47922
30.08	6.63021
30.3	5.00855
30.52	5.25295
30.74	32.9474
30.96	40.0709
31.18	15.7454
31.4	10.9372
31.62	8.28147
31.84	2.62291
32.06	11.695
32.28	4.95599
32.5	0.031504
32.72	9.24513
32.94	4.88913
33.16	11.544
33.38	14.4392
33.6	29.4352
33.82	1.65012
34.04	5.53128
34.26	12.4724
34.48	17.7529
34.7	22.0271
34.92	8.14184
35.14	14.7538
35.36	0.847872
35.58	0.365807
35.8	4.89978
36.02	3.26127
36.24	144.946
36.46	5.11276
36.68	7.8604
36.9	3.32193
37.12	17.4278
37.34	23.9011
37.56	9.96748
37.78	18.8167
38	3.44717
38.22	10.7033
38.44	12.1739
38.66	2.54897
38.88	7.98499
39.1	4.7644
39.32	16.4982
39.54	0.144531
39.76	4.40403
39.98	9.61468
40.2	10.8486
40.42	12.5407
40.64	7.2596
40.86	10.8461
41.08	3.40655
41.3	2.80005
41.52	10.2528
41.74	14.3685
41.96	11.6268
42.18	22.6113
42.4	18.7801
42.62	4.8955
42.84	1.75972
43.06	4.07751
43.28	4.73792
43.5	1.19257
43.72	13.6849
43.94	5.71368
44.16	11.3833
44.38	2.39648
44.6	19.2466
44.82	5.01459
45.04	13.9631
45.26	9.93858
45.48	21.9875
45.7	167.781
45.92	108.038
46.14	10.5386
46.36	15.8427
46.58	9.43581
46.8	19.9481
47.02	6.42265
47.24	16.3919
47.46	9.94641
47.68	18.2402
47.9	1.56014
48.12	3.96135
48.34	11.0432
48.56	0.531826
48.78	6.49201
49	13.5987
49.22	0.243889
49.44	9.83226
49.66	13.3305
49.88	14.8055
50.1	5.98477
50.32	13.1389
50.54	8.85757
50.76	7.63029
50.98	5.2807
51.2	8.23566
51.42	9.28017
51.64	6.11794
51.86	2.07567
52.08	16.2718
52.3	0.178919
52.52	13.1673
52.74	9.96223
52.96	3.23406
53.18	19.2815
53.4	5.78946
53.62	16.6367
53.84	2.20271
54.06	11.0145
54.28	12.8728
54.5	4.26089
54.72	4.57128
54.94	8.32883
55.16	2.24663
55.38	23.1633
55.6	31.6813
55.82	10.2814
56.04	26.0717
56.26	12.6787
56.48	8.17564
56.7	6.65832
56.92	11.2264
57.14	20.7824
57.36	17.1864
57.58	0.429199
57.8	7.61557
58.02	12.5338
58.24	13.9757
58.46	13.3115
58.68	11.9929
58.9	8.80223
59.12	9.37061
59.34	6.90411
59.56	19.4119
59.78	6.99082
60	0.573687
60.22	0.210535
60.44	6.9193
60.66	7.46014
60.88	16.8512
61.1	23.4676
61.32	5.59956
61.54	2.54575
61.76	9.88199
61.98	4.72905
62.2	11.5961
62.42	0.012579
62.64	7.34264
62.86	8.49752
63.08	13.4941
63.3	3.21577
63.52	17.8553
63.74	3.89598
63.96	4.48494
64.18	2.41019
64.4	9.53225
64.62	11.3222
64.84	5.33884
65.06	13.1135
65.28	3.11202
65.5	3.28369
65.72	8.40888
65.94	36.0352
66.16	19.0847
66.38	6.64143
66.6	2.73424
66.82	1.92627
67.04	4.28099
67.26	10.4045
67.48	2.28107
67.7	11.3845
67.92	10.4367
68.14	16.0243
68.36	12.4407
68.58	15.6373
68.8	14.117
69.02	3.73149
69.24	6.11576
69.46	15.8208
69.68	15.0113
69.9	11.534
70.12	8.02889
70.34	10.5655
70.56	0.862728
70.78	7.15651
71	2.38042
71.22	4.64309
71.44	14.6137
71.66	13.2526
71.88	1.94149
72.1	9.25653
72.32	12.3277
72.54	12.1259
72.76	5.03151
72.98	20.0059
73.2	16.9127
73.42	7.92789
73.64	6.92877
73.86	11.5159
74.08	7.86448
74.3	1.94173
74.52	8.04701
74.74	11.1338
74.96	6.12
75.18	7.14147
75.4	7.02823
75.62	0.966345
75.84	17.9493
76.06	6.88687
76.28	16.2207
76.5	11.0156
76.72	4.30913
76.94	21.4315
77.16	11.4229
77.38	10.0818
77.6	19.1176
77.82	4.28558
78.04	3.37528
78.26	0.645128
78.48	8.92408
78.7	1.03994
78.92	2.70566
79.14	2.02617
79.36	8.11847
79.58	10.7797
79.8	0.639751
80.02	1.52974
80.24	6.75774
80.46	0.448483
80.68	14.5957
80.9	11.5054
81.12	16.422
81.34	5.85646
81.56	13.3559
81.78	0.583265
82	5.45702
82.22	18.4065
82.44	9.46007
82.66	6.75509
82.88	11.0152
83.1	7.14974
83.32	3.26181
83.54	7.62907
83.76	9.84626
83.98	7.81636
84.2	14.799
84.42	5.88922
84.64	18.0904
84.86	4.01641
85.08	6.44358
85.3	0.578764
85.52	3.45641
85.74	15.4373
85.96	6.98159
86.18	5.42381
86.4	9.28205
86.62	17.4797
86.84	13.3958
87.06	2.29729
87.28	12.2754
87.5	0.643394
87.72	12.2947
87.94	10.0306
88.16	10.1689
88.38	3.41689
88.6	10.0061
88.82	7.98473
89.04	13.164
89.26	6.81594
89.48	10.111
89.7	19.5829
89.92	15.0235
