Measurement: Powder, Xray Data XY Processed
Mineral: Meionite
Rruff sample: R040169
Ideal chemistry: Ca_4_Al_6_Si_6_O_24_(CO_3_)
Locality: Black Hills, South Dakota, USA
Source: University of Arizona Mineral Museum
Description: White massive
Diffraction sample description: Powder
Measured chemistry: (Ca_0.73_Na_0.24_K_0.03_)_4_(Si_0.58_Al_0.41_)_12_O_24_((CO_3_)_0.90_Cl_0.10_)
Cell parameters: a: 12.1592(3) b: 12.1592(3) c: 7.5653(3) alpha: 90. beta: 90. gamma: 90. volume: 1118.51(5) crystal system: tetragonal
x	intensity
5	0
5.22	0.309795
5.44	16.1216
5.66	12.0914
5.88	10.2638
6.1	6.85698
6.32	1.4848
6.54	13.1301
6.76	13.6641
6.98	16.4001
7.2	6.25787
7.42	2.76292
7.64	1.65521
7.86	5.33248
8.08	7.85503
8.3	4.4202
8.52	3.97658
8.74	13.3689
8.96	5.36803
9.18	4.40408
9.4	1.45047
9.62	4.54058
9.84	7.71277
10.06	1.84866
10.28	29.8321
10.5	7.97161
10.72	5.12589
10.94	5.15289
11.16	0.724301
11.38	5.52336
11.6	8.86498
11.82	7.95666
12.04	10.0353
12.26	6.26121
12.48	5.31027
12.7	0.602175
12.92	7.48514
13.14	9.36375
13.36	3.26726
13.58	2.13176
13.8	7.00315
14.02	5.88923
14.24	0.827324
14.46	17.9532
14.68	33.9463
14.9	1.99345
15.12	6.22351
15.34	1.1658
15.56	1.27319
15.78	4.53486
16	4.94594
16.22	0.10444
16.44	4.40361
16.66	4.62347
16.88	4.94037
17.1	6.22827
17.32	6.31336
17.54	5.35916
17.76	6.57378
17.98	11.8862
18.2	4.92643
18.42	0.791675
18.64	13.0415
18.86	6.96576
19.08	13.7291
19.3	0.294257
19.52	4.50881
19.74	6.64313
19.96	4.62515
20.18	36.5428
20.4	5.43539
20.62	8.77302
20.84	10.0796
21.06	5.73283
21.28	10.9154
21.5	7.10311
21.72	7.01054
21.94	2.92058
22.16	5.67221
22.38	6.53961
22.6	7.35014
22.82	12.2495
23.04	15.9172
23.26	58.8822
23.48	11.8162
23.7	5.77172
23.92	2.38999
24.14	0.820997
24.36	2.97906
24.58	4.73511
24.8	6.48782
25.02	39.2739
25.24	2.16814
25.46	6.99835
25.68	97.4488
25.9	56.2609
26.12	13.658
26.34	4.20907
26.56	13.0915
26.78	21.0192
27	2.96423
27.22	9.13589
27.44	6.04971
27.66	23.4504
27.88	20.2157
28.1	22.0113
28.32	1.67988
28.54	1.61027
28.76	9.38137
28.98	301.95
29.2	42.1727
29.42	379.684
29.64	21.0827
29.86	7.42016
30.08	2.83756
30.3	5.18748
30.52	5.48739
30.74	8.81232
30.96	6.46327
31.18	10.6614
31.4	10.3478
31.62	22.31
31.84	5.03768
32.06	0.326164
32.28	5.57973
32.5	4.60269
32.72	58.81
32.94	45.3521
33.16	30.4939
33.38	50.2182
33.6	5.15718
33.82	6.23787
34.04	2.53347
34.26	5.88262
34.48	5.53127
34.7	14.7995
34.92	5.85431
35.14	2.04256
35.36	1.12433
35.58	14.1595
35.8	8.22368
36.02	4.7647
36.24	2.92064
36.46	6.91469
36.68	7.58297
36.9	5.11358
37.12	8.1204
37.34	4.10874
37.56	4.90087
37.78	14.6667
38	4.35175
38.22	1.66302
38.44	0.329936
38.66	3.67144
38.88	66.3955
39.1	12.7279
39.32	0.172579
39.54	17.8838
39.76	4.95274
39.98	7.07291
40.2	3.20038
40.42	0.47883
40.64	3.26732
40.86	11.0589
41.08	3.79347
41.3	2.80088
41.52	7.22314
41.74	80.9312
41.96	7.84175
42.18	82.5148
42.4	14.1796
42.62	7.21621
42.84	0.611548
43.06	2.8444
43.28	12.0121
43.5	25.3827
43.72	2.64226
43.94	6.94797
44.16	7.08571
44.38	4.27693
44.6	2.81821
44.82	18.1873
45.04	40.2789
45.26	2.41368
45.48	0.986188
45.7	10.9818
45.92	13.522
46.14	5.1061
46.36	1.3849
46.58	6.05954
46.8	2.443
47.02	151.599
47.24	25.835
47.46	117.405
47.68	17.6601
47.9	0.601832
48.12	118.006
48.34	7.11041
48.56	10.345
48.78	5.79089
49	3.20175
49.22	2.926
49.44	16.6142
49.66	8.16881
49.88	5.59204
50.1	14.7786
50.32	10.2556
50.54	3.07633
50.76	1.24725
50.98	3.45474
51.2	0.402701
51.42	2.69143
51.64	4.61378
51.86	41.4162
52.08	1.35871
52.3	3.25606
52.52	2.3535
52.74	8.67621
52.96	0.997965
53.18	6.14472
53.4	34.221
53.62	18.4815
53.84	3.4196
54.06	5.5856
54.28	3.837
54.5	13.0513
54.72	6.13529
54.94	6.1963
55.16	6.15735
55.38	11.8739
55.6	3.79845
55.82	1.80036
56.04	0.283874
56.26	5.49744
56.48	14.2169
56.7	5.04826
56.92	0.942896
57.14	10.834
57.36	26.708
57.58	13.033
57.8	8.10094
58.02	8.19109
58.24	1.38579
58.46	3.52091
58.68	2.77847
58.9	18.0916
59.12	21.15
59.34	7.17247
59.56	4.37068
59.78	10.1169
60	3.742
60.22	11.8039
60.44	4.86889
60.66	3.9148
60.88	4.95394
61.1	27.8639
61.32	7.11755
61.54	0.842511
61.76	3.03297
61.98	6.95633
62.2	8.96146
62.42	1.96379
62.64	17.17
62.86	29.0387
63.08	13.8928
63.3	15.0659
63.52	8.89576
63.74	2.74384
63.96	2.69168
64.18	1.43014
64.4	6.50549
64.62	2.37854
64.84	4.21002
65.06	23.7224
65.28	11.6452
65.5	5.70009
65.72	0.233403
65.94	8.16951
66.16	8.76556
66.38	4.6143
66.6	4.72347
66.82	3.52814
67.04	3.6019
67.26	14.3409
67.48	9.35118
67.7	0.392922
67.92	15.4362
68.14	7.56082
68.36	16.876
68.58	7.17984
68.8	14.3702
69.02	5.41247
69.24	10.6447
69.46	1.86009
69.68	13.1279
69.9	10.5819
70.12	9.47443
70.34	6.29333
70.56	2.71479
70.78	8.59
71	3.79729
71.22	13.1234
71.44	14.2684
71.66	1.66364
71.88	5.24092
72.1	4.34509
72.32	2.98338
72.54	5.14902
72.76	5.95639
72.98	5.33111
73.2	6.11135
73.42	11.6029
73.64	6.36713
73.86	11.0989
74.08	12.9806
74.3	1.1332
74.52	11.061
74.74	7.46509
74.96	8.45231
75.18	0.964441
75.4	2.74287
75.62	17.6141
75.84	8.11666
76.06	6.54898
76.28	9.81276
76.5	2.1679
76.72	1.37348
76.94	5.47462
77.16	0.559462
77.38	4.64144
77.6	4.42968
77.82	3.59037
78.04	3.62431
78.26	5.29922
78.48	5.16821
78.7	8.16792
78.92	0.754266
79.14	7.00208
79.36	16.8008
79.58	3.58949
79.8	0.630238
80.02	2.2917
80.24	1.43757
80.46	4.27678
80.68	6.22028
80.9	4.32375
81.12	8.44265
81.34	3.24171
81.56	5.20095
81.78	7.21321
82	6.20427
82.22	3.0872
82.44	7.02916
82.66	10.1399
82.88	3.65956
83.1	19.7125
83.32	5.43702
83.54	1.28419
83.76	10.3017
83.98	3.30189
84.2	6.25666
84.42	4.30077
84.64	8.43534
84.86	33.2985
85.08	17.166
85.3	0.658731
85.52	0.194941
85.74	11.8829
85.96	0.885955
86.18	2.0911
86.4	6.49628
86.62	6.82794
86.84	7.70399
87.06	7.84985
87.28	0.876069
87.5	4.286
87.72	9.16125
87.94	2.26688
88.16	1.36851
88.38	5.43739
88.6	10.4487
88.82	13.0564
89.04	11.1634
89.26	0.144582
89.48	8.36526
89.7	9.46295
89.92	1.7205
