Measurement: Powder, Xray Data XY Processed
Mineral: Melanovanadite
Rruff sample: R050555
Ideal chemistry: CaV^4+^_2_V^5+^_2_O_10_5H_2_O
Locality: Ragra mine, Cerro de Pasco Province, Pasco Department, Peru
Source: Dave Bunk Minerals
Description: Radiating aggregates of black prismatic crystals
Diffraction sample description: Powder
Measured chemistry: (Ca_0.87_[box]_0.13_)_Σ=1_(V^5+^_2.26_V^4+^_1.74_)_Σ=4_O_10_·5H_2_O
Cell parameters: a: 6.3644(6) b: 17.9888(9) c: 6.287(2) alpha: 110.332(8) beta: 101.61(1) gamma: 82.79(2) volume: 659.9(2) crystal system: triclinic
x	intensity
5	0
5.22	6.401
5.44	19.031
5.66	2.995
5.88	10.4
6.1	14.226
6.32	0.644
6.54	12.461
6.76	10.554
6.98	2.408
7.2	10.293
7.42	16.13
7.64	13.686
7.86	7.532
8.08	7.164
8.3	0.286
8.52	12.545
8.74	9.805
8.96	4.727
9.18	12.884
9.4	4.051
9.62	10.886
9.84	7.092
10.06	14.348
10.28	18.384
10.5	181.546
10.72	17.034
10.94	20.688
11.16	3.748
11.38	2.612
11.6	5.516
11.82	0.576
12.04	6.623
12.26	3.119
12.48	4.767
12.7	0.336
12.92	1.486
13.14	10.809
13.36	4.105
13.58	1.217
13.8	3.412
14.02	5.525
14.24	3.508
14.46	0.442
14.68	10.643
14.9	4.031
15.12	11.249
15.34	16.675
15.56	3.979
15.78	6.197
16	8.1
16.22	3.149
16.44	10.138
16.66	7.078
16.88	1.943
17.1	2.789
17.32	4.394
17.54	6.207
17.76	9.966
17.98	2.729
18.2	5.59
18.42	0.512
18.64	8.731
18.86	0.884
19.08	6.228
19.3	1.27
19.52	11.136
19.74	7.044
19.96	2.223
20.18	6.527
20.4	0.346
20.62	5.184
20.84	2.033
21.06	29.648
21.28	26.194
21.5	10.354
21.72	7.58
21.94	5.965
22.16	4.116
22.38	3.326
22.6	3.581
22.82	2.847
23.04	1.716
23.26	7.487
23.48	0.686
23.7	8.814
23.92	5.636
24.14	1.366
24.36	2.424
24.58	7.438
24.8	5.418
25.02	4.443
25.24	3.198
25.46	2.01
25.68	7.837
25.9	3.572
26.12	9.339
26.34	6.627
26.56	4.659
26.78	11.168
27	8.961
27.22	4.688
27.44	6.396
27.66	0.903
27.88	9.857
28.1	19.866
28.32	0.846
28.54	1.55
28.76	14.801
28.98	4.232
29.2	1.079
29.42	2.934
29.64	5.788
29.86	13.097
30.08	43.265
30.3	10.688
30.52	16.568
30.74	9.56
30.96	5.046
31.18	6.776
31.4	12.148
31.62	14.873
31.84	10.256
32.06	11.546
32.28	3.531
32.5	3.885
32.72	0.06
32.94	3.083
33.16	2.199
33.38	7.2
33.6	1.685
33.82	6.367
34.04	3.279
34.26	9.359
34.48	0.653
34.7	8.718
34.92	9.366
35.14	8.355
35.36	4.404
35.58	4.444
35.8	1.464
36.02	5.191
36.24	8.627
36.46	8.602
36.68	7.657
36.9	6.685
37.12	4.919
37.34	5.103
37.56	3.287
37.78	8.48
38	0.406
38.22	3.632
38.44	6.576
38.66	9.43
38.88	0.277
39.1	5.122
39.32	2.919
39.54	4.829
39.76	8.757
39.98	2.832
40.2	1.697
40.42	9.646
40.64	7.049
40.86	5.185
41.08	5.983
41.3	10.074
41.52	2.075
41.74	4.204
41.96	3.048
42.18	9.047
42.4	9.739
42.62	6.796
42.84	8.667
43.06	5.16
43.28	8.096
43.5	11.982
43.72	6.842
43.94	7.755
44.16	5.04
44.38	5.121
44.6	2.178
44.82	9.148
45.04	2.528
45.26	8.639
45.48	4.859
45.7	2.874
45.92	8.973
46.14	7.027
46.36	0.848
46.58	3.774
46.8	2.84
47.02	1.917
47.24	4.929
47.46	9.598
47.68	1.75
47.9	2.598
48.12	0.742
48.34	9.045
48.56	13.21
48.78	1.204
49	0.227
49.22	1.093
49.44	10.887
49.66	2.773
49.88	6.751
50.1	4.546
50.32	3.499
50.54	3.418
50.76	9.068
50.98	8.057
51.2	1.233
51.42	9.472
51.64	7.607
51.86	11.788
52.08	5.905
52.3	5.913
52.52	1.916
52.74	10.91
52.96	5.925
53.18	8.084
53.4	5.029
53.62	5.032
53.84	3.715
54.06	5.676
54.28	5.618
54.5	3.839
54.72	0.925
54.94	0.16
55.16	4.37
55.38	7.368
55.6	8.502
55.82	7.656
56.04	2.642
56.26	2.991
56.48	0.947
56.7	4.977
56.92	10.719
57.14	10.392
57.36	0.281
57.58	8.935
57.8	12.889
58.02	10.625
58.24	9.318
58.46	4.139
58.68	10.755
58.9	0.645
59.12	6.754
59.34	2.861
59.56	4.202
59.78	3.613
60	11.938
60.22	5.278
60.44	5.302
60.66	7.42
60.88	7.461
61.1	1.456
61.32	10.474
61.54	1.279
61.76	9.099
61.98	7.821
62.2	2.398
62.42	5.96
62.64	7.859
62.86	8.974
63.08	3.113
63.3	4.276
63.52	4.5
63.74	2.757
63.96	0.016
64.18	6.214
64.4	4.506
64.62	4.824
64.84	7.011
65.06	3.066
65.28	8.326
65.5	11.402
65.72	2.185
65.94	6.231
66.16	1.061
66.38	3.016
66.6	3.883
66.82	2.698
67.04	5.463
67.26	6.289
67.48	14.065
67.7	0.042
67.92	1.099
68.14	2.11
68.36	0.986
68.58	5.03
68.8	0.023
69.02	2.835
69.24	6.039
69.46	2.042
69.68	9.045
69.9	6.111
70.12	0.975
70.34	0.975
70.56	9.139
70.78	6.308
71	0.522
71.22	5.702
71.44	1.76
71.66	10.869
71.88	5.085
72.1	5.135
72.32	0.178
72.54	8.283
72.76	1.124
72.98	3.301
73.2	3.28
73.42	1.214
73.64	0.084
73.86	13.017
74.08	6.137
74.3	1.014
74.52	4.157
74.74	3.131
74.96	11.06
75.18	7.903
75.4	7.764
75.62	3.161
75.84	2.776
76.06	1.784
76.28	1.738
76.5	5.615
76.72	0.649
76.94	4.661
77.16	0.258
77.38	0.951
77.6	7.972
77.82	5.031
78.04	4.85
78.26	4.794
78.48	4.7
78.7	3.665
78.92	3.64
79.14	9.602
79.36	1.325
79.58	4.611
79.8	3.462
80.02	8.523
80.24	13.492
80.46	3.513
80.68	1.412
80.9	5.815
81.12	3.842
81.34	2.924
81.56	6.949
81.78	7.024
82	2.626
82.22	10.834
82.44	8.81
82.66	8.069
82.88	5.323
83.1	8.471
83.32	6.328
83.54	7.404
83.76	7.492
83.98	2.433
84.2	11.556
84.42	3.534
84.64	5.281
84.86	7.453
85.08	1.198
85.3	3.158
85.52	5.147
85.74	3.065
85.96	4.938
86.18	7.719
86.4	9.674
86.62	5.584
86.84	6.526
87.06	4.436
87.28	9.221
87.5	0.27
87.72	2.194
87.94	6.092
88.16	8.194
88.38	5.416
88.6	3.612
88.82	0.75
89.04	0.019
89.26	13.394
89.48	5.445
89.7	3.923
89.92	8.152
