Measurement: Powder, Xray Data XY Processed
Mineral: Melanovanadite
Rruff sample: R060131
Ideal chemistry: CaV^4+^_2_V^5+^_2_O_10_5H_2_O
Locality: Minas Ragra, Peru
Source: University of Arizona Mineral Museum
Description: Sprays of black prismatic crystals
Diffraction sample description: Powder
Measured chemistry: (Ca_0.73_[box]_0.27_)_Σ=1_(V^5+^_2.54_V^4+^_1.46_)_Σ=4_O_10_·5H_2_O
Cell parameters: a: 6.358(1) b: 17.978(2) c: 6.258(2) alpha: 110.41(1) beta: 101.87(2) gamma: 82.66(2) volume: 654.9(0) crystal system: triclinic
x	intensity
5	0
5.22	17.717
5.44	12.619
5.66	12.389
5.88	4.892
6.1	20.369
6.32	16.928
6.54	28.274
6.76	14.88
6.98	15.336
7.2	7.958
7.42	14.716
7.64	8.283
7.86	11.197
8.08	12.404
8.3	0.288
8.52	5.184
8.74	14.018
8.96	3.315
9.18	6.97
9.4	2.739
9.62	5.538
9.84	33.323
10.06	28.582
10.28	21.044
10.5	88.961
10.72	15.044
10.94	3.947
11.16	3.187
11.38	1.372
11.6	1.777
11.82	12.927
12.04	0.108
12.26	6.651
12.48	2.447
12.7	1.917
12.92	0.254
13.14	7.87
13.36	8.553
13.58	4.662
13.8	5.906
14.02	7.958
14.24	2.053
14.46	0.131
14.68	8.164
14.9	3.13
15.12	5.868
15.34	4.881
15.56	7.874
15.78	3.285
16	9.214
16.22	3.063
16.44	1.124
16.66	3.044
16.88	9.034
17.1	11.041
17.32	6.399
17.54	5.47
17.76	6.602
17.98	7.559
18.2	9.283
18.42	4.434
18.64	6.545
18.86	4.413
19.08	8.269
19.3	7.242
19.52	0.852
19.74	6.635
19.96	3.348
20.18	11.052
20.4	1.887
20.62	4.581
20.84	3.595
21.06	16.478
21.28	19.438
21.5	8.466
21.72	12.441
21.94	7.664
22.16	0.217
22.38	5.097
22.6	0.379
22.82	9.532
23.04	1.688
23.26	7.698
23.48	4.741
23.7	2.81
23.92	1.738
24.14	9.737
24.36	4.527
24.58	3.432
24.8	6.284
25.02	6.099
25.24	6.89
25.46	6.689
25.68	6.471
25.9	10.127
26.12	23.046
26.34	8.089
26.56	1.091
26.78	2.355
27	8.128
27.22	0.795
27.44	1.24
27.66	7.492
27.88	4.157
28.1	13.716
28.32	3.457
28.54	5.021
28.76	17.519
28.98	4.869
29.2	3.621
29.42	9.79
29.64	16.621
29.86	0.653
30.08	39.018
30.3	12.277
30.52	13.58
30.74	8.747
30.96	4.218
31.18	3.783
31.4	4.224
31.62	4.547
31.84	7.644
32.06	3.933
32.28	0.367
32.5	9.399
32.72	6.951
32.94	13.16
33.16	7.254
33.38	2.279
33.6	12.378
33.82	2.437
34.04	1.603
34.26	5.675
34.48	6.62
34.7	2.778
34.92	11.681
35.14	0.638
35.36	2.682
35.58	3.095
35.8	8.15
36.02	3.044
36.24	8.007
36.46	3.944
36.68	4.219
36.9	3.063
37.12	7.131
37.34	2.25
37.56	3.34
37.78	1.509
38	3.352
38.22	6.432
38.44	3.501
38.66	3.693
38.88	3.78
39.1	7.584
39.32	1.602
39.54	12.524
39.76	5.581
39.98	12.602
40.2	3.588
40.42	5.549
40.64	5.73
40.86	5.841
41.08	4.603
41.3	2.62
41.52	3.726
41.74	8.782
41.96	5.878
42.18	6.083
42.4	3.998
42.62	2.834
42.84	0.114
43.06	8.758
43.28	3.874
43.5	8.811
43.72	10.767
43.94	8.71
44.16	4.695
44.38	3.767
44.6	0.629
44.82	11.609
45.04	9.796
45.26	4.958
45.48	4.885
45.7	1.634
45.92	8.639
46.14	1.722
46.36	0.709
46.58	5.834
46.8	7.689
47.02	9.679
47.24	3.895
47.46	0.933
47.68	3.808
47.9	9.779
48.12	4.81
48.34	4.942
48.56	3.908
48.78	4.787
49	5.503
49.22	5.599
49.44	6.311
49.66	6.916
49.88	1.625
50.1	11.539
50.32	3.561
50.54	8.413
50.76	10.196
50.98	11.105
51.2	4.225
51.42	0.358
51.64	10.503
51.86	3.894
52.08	3.486
52.3	6.76
52.52	0.099
52.74	11.26
52.96	8.601
53.18	3.004
53.4	7.145
53.62	2.984
53.84	5.969
54.06	5.95
54.28	1.863
54.5	6.413
54.72	2.338
54.94	7.079
55.16	0.003
55.38	6.877
55.6	9.654
55.82	7.603
56.04	0.497
56.26	6.636
56.48	6.846
56.7	4.783
56.92	3.755
57.14	4.577
57.36	6.667
57.58	7.442
57.8	5.491
58.02	9.337
58.24	4.286
58.46	7.249
58.68	10.166
58.9	7.003
59.12	10.064
59.34	6.272
59.56	3.256
59.78	0.691
60	6.467
60.22	9.465
60.44	0.601
60.66	4.753
60.88	2.796
61.1	4.727
61.32	9.673
61.54	9.837
61.76	6.821
61.98	4.803
62.2	5.035
62.42	9.01
62.64	0.14
62.86	6.238
63.08	14.376
63.3	10.475
63.52	5.613
63.74	6.754
63.96	0.57
64.18	9.376
64.4	1.409
64.62	3.253
64.84	5.254
65.06	7.07
65.28	0.923
65.5	0.682
65.72	10.688
65.94	5.638
66.16	1.81
66.38	3.906
66.6	5.331
66.82	10.406
67.04	0.465
67.26	5.594
67.48	2.264
67.7	2.916
67.92	6.043
68.14	6.049
68.36	3.129
68.58	5.913
68.8	3.988
69.02	5.667
69.24	8.71
69.46	7.912
69.68	7.905
69.9	1.087
70.12	8.846
70.34	3.827
70.56	3.849
70.78	5.002
71	7.274
71.22	0.166
71.44	4.26
71.66	7.339
71.88	3.202
72.1	5.336
72.32	8.325
72.54	4.344
72.76	1.258
72.98	5.979
73.2	11.974
73.42	2.625
73.64	4.442
73.86	4.43
74.08	5.25
74.3	8.149
74.52	2.204
74.74	4.255
74.96	10.216
75.18	1.349
75.4	4.512
75.62	0.779
75.84	11.915
76.06	3.085
76.28	10.234
76.5	5.435
76.72	8.584
76.94	6.588
77.16	8.565
77.38	7.595
77.6	7.482
77.82	6.396
78.04	6.424
78.26	5.36
78.48	3.31
78.7	2.138
78.92	2.953
79.14	1.206
79.36	3.702
79.58	6.799
79.8	0.802
80.02	10.775
80.24	2.727
80.46	3.927
80.68	1.912
80.9	0.811
81.12	9.833
81.34	5.803
81.56	8.616
81.78	7.586
82	4.734
82.22	5.699
82.44	0.695
82.66	10.521
82.88	4.358
83.1	4.58
83.32	6.572
83.54	2.556
83.76	10.64
83.98	4.762
84.2	3.87
84.42	4.58
84.64	6.601
84.86	9.686
85.08	6.825
85.3	7.069
85.52	2.006
85.74	7.068
85.96	6.134
86.18	3.197
86.4	8.165
86.62	5.126
86.84	5.288
87.06	8.358
87.28	5.347
87.5	5.549
87.72	4.327
87.94	3.31
88.16	0.592
88.38	3.459
88.6	2.632
88.82	0.285
89.04	2.824
89.26	1.959
89.48	1.83
89.7	8.144
89.92	1.318
