Measurement: Powder, Xray Data XY Processed
Mineral: Mendipite
Rruff sample: R050669
Ideal chemistry: Pb^2+^_3_O_2_Cl_2_
Locality: Mendip Hills, Higher Pits, Somerset, England
Source: University of Arizona Mineral Museum
Description: Colorless coarsely fibrous aggregate
Diffraction sample description: Powder
Measured chemistry: Pb_3.00_O_2_Cl_2.00_
Cell parameters: a: 11.8906(8) b: 5.8115(6) c: 9.5189(9) alpha: 90. beta: 90. gamma: 90. volume: 657.78(8) crystal system: orthorhombic
x	intensity
5	0
5.22	13.41
5.44	13.036
5.66	18.68
5.88	5.018
6.1	11.147
6.32	11.29
6.54	8.696
6.76	9.025
6.98	10.549
7.2	9.918
7.42	6.681
7.64	9.111
7.86	2.921
8.08	4.24
8.3	1.776
8.52	5.195
8.74	3.508
8.96	2.549
9.18	5.988
9.4	6.062
9.62	2.133
9.84	2.206
10.06	7.331
10.28	0.127
10.5	10.977
10.72	1.944
10.94	5.914
11.16	12.873
11.38	2.887
11.6	5.669
11.82	14.726
12.04	23.87
12.26	5.899
12.48	5.929
12.7	5.991
12.92	5.406
13.14	6.563
13.36	6.707
13.58	1.84
13.8	3.951
14.02	7.124
14.24	5.158
14.46	6.011
14.68	15.957
14.9	7.856
15.12	3.797
15.34	5.541
15.56	3.489
15.78	10.566
16	1.528
16.22	2.381
16.44	4.216
16.66	2.119
16.88	5.007
17.1	8.048
17.32	11.923
17.54	2.902
17.76	8.971
17.98	11.967
18.2	12.986
18.42	5.951
18.64	9.194
18.86	4.229
19.08	4.246
19.3	0.571
19.52	9.291
19.74	1.651
19.96	5.312
20.18	6.184
20.4	5.026
20.62	6.953
20.84	0.006
21.06	4.862
21.28	4.116
21.5	26.307
21.72	5.239
21.94	2.198
22.16	7.058
22.38	2.041
22.6	0.715
22.82	0.759
23.04	2.714
23.26	10.382
23.48	52.021
23.7	3.443
23.92	6.832
24.14	9.56
24.36	1.314
24.58	3.128
24.8	0.113
25.02	7.312
25.24	22.975
25.46	35.242
25.68	10.399
25.9	13.827
26.12	0.078
26.34	0.877
26.56	2.929
26.78	3.911
27	6.817
27.22	5.068
27.44	0.757
27.66	1.629
27.88	5.06
28.1	2.497
28.32	8.077
28.54	5.871
28.76	11.597
28.98	44.414
29.2	18.73
29.42	57.763
29.64	12.22
29.86	2.832
30.08	5.895
30.3	3.27
30.52	3.365
30.74	15.264
30.96	34.082
31.18	0.962
31.4	0.314
31.62	1.551
31.84	6.128
32.06	27.905
32.28	36.787
32.5	5.532
32.72	12.246
32.94	9.109
33.16	32.236
33.38	7.524
33.6	1.483
33.82	28.093
34.04	47.406
34.26	16.039
34.48	6.606
34.7	0.009
34.92	4.291
35.14	2.585
35.36	5.829
35.58	4.014
35.8	20.103
36.02	0.893
36.24	10.773
36.46	6.829
36.68	3.792
36.9	1.837
37.12	0.976
37.34	10.23
37.56	5.682
37.78	4.871
38	6.1
38.22	6.13
38.44	0.09
38.66	11.292
38.88	3.488
39.1	9.637
39.32	1.619
39.54	5.726
39.76	6.599
39.98	5.263
40.2	4.12
40.42	7.02
40.64	6.857
40.86	4.589
41.08	4.219
41.3	1.225
41.52	12.225
41.74	10.103
41.96	4.791
42.18	3.765
42.4	3.724
42.62	2.766
42.84	10.78
43.06	48.007
43.28	24.543
43.5	3.655
43.72	1.493
43.94	2.363
44.16	9.441
44.38	1.398
44.6	4.585
44.82	4.536
45.04	2.673
45.26	10.511
45.48	0.411
45.7	2.044
45.92	7.953
46.14	2.787
46.36	4.929
46.58	4.053
46.8	4.865
47.02	2.847
47.24	1.82
47.46	0.503
47.68	8.438
47.9	5.577
48.12	7.432
48.34	9.626
48.56	7.514
48.78	5.399
49	3.396
49.22	5.505
49.44	0.441
49.66	3.365
49.88	1.651
50.1	2.686
50.32	1.458
50.54	16.143
50.76	5.844
50.98	0.397
51.2	3.423
51.42	5.064
51.64	9.707
51.86	0.492
52.08	4.405
52.3	2.888
52.52	6.058
52.74	18.985
52.96	9.115
53.18	0.787
53.4	3.082
53.62	8.191
53.84	5.524
54.06	11.823
54.28	0.993
54.5	2.888
54.72	5.461
54.94	5.201
55.16	3.096
55.38	6.561
55.6	6.846
55.82	18.343
56.04	12.786
56.26	3.874
56.48	1.554
56.7	11.886
56.92	8.966
57.14	12.273
57.36	3.612
57.58	4.93
57.8	5.233
58.02	1.691
58.24	6.278
58.46	7.826
58.68	6.818
58.9	8.105
59.12	12.856
59.34	9.098
59.56	3.307
59.78	7.585
60	18.813
60.22	13.975
60.44	14.128
60.66	4.213
60.88	0.304
61.1	0.803
61.32	5.074
61.54	3.193
61.76	10.324
61.98	3.114
62.2	5.153
62.42	15.156
62.64	8.179
62.86	5.161
63.08	5.915
63.3	1.673
63.52	0.841
63.74	2.119
63.96	2.069
64.18	8.014
64.4	6.066
64.62	6.055
64.84	5.353
65.06	3.171
65.28	1.34
65.5	8.454
65.72	2.52
65.94	1.348
66.16	2.153
66.38	4.217
66.6	3.18
66.82	4.285
67.04	6.461
67.26	5.103
67.48	4.333
67.7	10.396
67.92	11.511
68.14	4.513
68.36	6.274
68.58	0.822
68.8	4.236
69.02	5.267
69.24	7.246
69.46	1.22
69.68	9.426
69.9	4.219
70.12	5.936
70.34	2.753
70.56	1.36
70.78	7.573
71	1.687
71.22	9.116
71.44	5.931
71.66	10.165
71.88	8.977
72.1	13.923
72.32	5.917
72.54	3.902
72.76	3.968
72.98	0.931
73.2	5.833
73.42	4.005
73.64	13.011
73.86	12.025
74.08	2.575
74.3	7.885
74.52	1.659
74.74	7.072
74.96	11.164
75.18	6.421
75.4	6.467
75.62	6.506
75.84	1.575
76.06	4.386
76.28	4.322
76.5	7.223
76.72	9.882
76.94	1.797
77.16	9.519
77.38	13.412
77.6	3.16
77.82	5.317
78.04	5.39
78.26	3.386
78.48	1.525
78.7	6.034
78.92	6.295
79.14	1.766
79.36	9.845
79.58	8.024
79.8	2.253
80.02	9.292
80.24	0.548
80.46	0.391
80.68	6.314
80.9	0.287
81.12	4.773
81.34	2.581
81.56	8.152
81.78	8.026
82	3.729
82.22	4.343
82.44	0.23
82.66	3.862
82.88	7.869
83.1	14.948
83.32	5.978
83.54	3.001
83.76	6.069
83.98	3.156
84.2	5.094
84.42	7.351
84.64	3.587
84.86	4.644
85.08	6.862
85.3	4.967
85.52	7.957
85.74	7.034
85.96	4.084
86.18	2.317
86.4	5.342
86.62	6.673
86.84	0.314
87.06	2.664
87.28	1.767
87.5	2.773
87.72	6.886
87.94	0.125
88.16	7.791
88.38	6.726
88.6	6.619
88.82	4.407
89.04	5.189
89.26	5.13
89.48	4.596
89.7	7.598
89.92	8.958
