Measurement: Powder, Xray Data XY Processed
Mineral: Meneghinite
Rruff sample: R070093
Ideal chemistry: Pb^2+^_13_Cu^1+^Sb^3+^_7_S^2-^_24_
Locality: Kalkar Quarry, Santa Cruz, Santa Cruz County, California, USA
Source: James Shigley
Description: Elongated silver-gray metallic crystals embedded in quartz and associated with calcite
Diffraction sample description: Powder
Measured chemistry: (Pb_12.20_Sn_0.80_)_Σ=13_Cu_1.00_(Sb_6.97_As_0.03_)_Σ=7_S_24.00_
Cell parameters: a: 11.2747(4) b: 23.3449(6) c: 4.0946(1) alpha: 90 beta: 90 gamma: 90 volume: 1077.74(5) crystal system: orthorhombic
x	intensity
5	0
5.22	7.73544
5.44	7.45392
5.66	16.463
5.88	6.66574
6.1	14.1107
6.32	0.251083
6.54	7.50269
6.76	8.30925
6.98	14.0191
7.2	9.77768
7.42	16.5766
7.64	5.09519
7.86	7.79563
8.08	3.42472
8.3	5.13823
8.52	2.76109
8.74	12.5512
8.96	8.89993
9.18	5.21823
9.4	15.4752
9.62	5.40875
9.84	11.5743
10.06	16.5362
10.28	2.24163
10.5	10.3742
10.72	5.18659
10.94	6.2897
11.16	3.49107
11.38	9.81055
11.6	2.85492
11.82	13.8872
12.04	2.05414
12.26	12.1191
12.48	7.2235
12.7	11.3163
12.92	5.25594
13.14	3.39588
13.36	5.26909
13.58	9.38718
13.8	3.1945
14.02	4.24926
14.24	1.20731
14.46	3.20777
14.68	2.97337
14.9	10.3727
15.12	4.33018
15.34	12.3596
15.56	8.30956
15.78	4.20996
16	1.25978
16.22	1.24527
16.44	6.55736
16.66	7.65545
16.88	3.77587
17.1	0.930685
17.32	11.998
17.54	14.1844
17.76	3.41282
17.98	9.48138
18.2	2.81388
18.42	2.58251
18.64	0.364467
18.86	6.61039
19.08	7.59587
19.3	3.81525
19.52	8.66848
19.74	3.59201
19.96	10.5227
20.18	3.15008
20.4	1.23638
20.62	8.13674
20.84	6.85736
21.06	3.68121
21.28	15.9814
21.5	15.4978
21.72	12.5165
21.94	2.54263
22.16	2.18072
22.38	2.94617
22.6	6.85767
22.82	6.65046
23.04	11.494
23.26	1.21956
23.48	12.8178
23.7	29.7964
23.92	17.9637
24.14	7.50821
24.36	18.8852
24.58	15.343
24.8	12.7305
25.02	15.431
25.24	4.86887
25.46	16.8034
25.68	27.5326
25.9	12.4273
26.12	0.596251
26.34	11.0858
26.56	4.04127
26.78	10.9559
27	23.1389
27.22	22.2231
27.44	22.8821
27.66	3.87671
27.88	1.49777
28.1	0.95286
28.32	9.19739
28.54	6.70864
28.76	2.19756
28.98	8.92791
29.2	13.9071
29.42	7.80212
29.64	4.26021
29.86	12.2551
30.08	23.3289
30.3	16.0686
30.52	34.387
30.74	44.1685
30.96	12.593
31.18	12.041
31.4	0.794004
31.62	12.4573
31.84	5.81744
32.06	14.3224
32.28	20.9805
32.5	22.7457
32.72	19.3161
32.94	14.7311
33.16	2.02138
33.38	1.23005
33.6	11.4196
33.82	9.60619
34.04	6.78991
34.26	8.88881
34.48	7.79166
34.7	9.94478
34.92	6.66156
35.14	8.30739
35.36	5.93978
35.58	3.98002
35.8	0.046165
36.02	7.04566
36.24	12.8368
36.46	15.6322
36.68	3.3348
36.9	13.0381
37.12	5.71279
37.34	4.41934
37.56	6.23877
37.78	1.0678
38	13.0881
38.22	6.87445
38.44	13.6529
38.66	0.521984
38.88	10.3527
39.1	8.0577
39.32	16.99
39.54	5.55761
39.76	3.31818
39.98	5.98074
40.2	15.7534
40.42	9.45599
40.64	5.75964
40.86	7.89062
41.08	7.38917
41.3	1.37712
41.52	7.91575
41.74	0.03319
41.96	3.25158
42.18	7.18551
42.4	7.80017
42.62	5.57061
42.84	14.3275
43.06	2.76963
43.28	9.25589
43.5	13.6113
43.72	8.47635
43.94	27.45
44.16	10.1904
44.38	16.2471
44.6	9.32782
44.82	0.557549
45.04	4.42935
45.26	8.65378
45.48	1.25462
45.7	8.35185
45.92	8.61711
46.14	0.564738
46.36	5.06865
46.58	12.0788
46.8	4.16701
47.02	10.0894
47.24	9.00693
47.46	11.9219
47.68	1.48424
47.9	16.7127
48.12	15.1268
48.34	7.71882
48.56	6.56979
48.78	3.55247
49	0.891293
49.22	0.266331
49.44	14.5055
49.66	3.31429
49.88	12.1505
50.1	3.57693
50.32	8.34296
50.54	8.38927
50.76	16.6329
50.98	12.8276
51.2	11.0731
51.42	14.2331
51.64	14.2948
51.86	6.52706
52.08	3.76613
52.3	1.09432
52.52	9.25364
52.74	4.75165
52.96	7.01951
53.18	10.1055
53.4	10.2388
53.62	14.6585
53.84	17.1136
54.06	8.70745
54.28	4.33253
54.5	16.7659
54.72	5.10626
54.94	3.8035
55.16	0.948157
55.38	4.25231
55.6	7.63326
55.82	9.863
56.04	7.99827
56.26	5.98104
56.48	3.01568
56.7	4.0673
56.92	10.2503
57.14	9.40074
57.36	6.28822
57.58	1.49842
57.8	7.76398
58.02	8.8556
58.24	0.977075
58.46	5.22399
58.68	3.33398
58.9	12.4294
59.12	7.5004
59.34	3.57495
59.56	8.58579
59.78	13.4829
60	0.544139
60.22	9.33315
60.44	10.2408
60.66	1.57781
60.88	4.46202
61.1	0.480541
61.32	1.47697
61.54	10.3961
61.76	6.15014
61.98	10.7671
62.2	0.786909
62.42	5.71831
62.64	9.57256
62.86	5.40666
63.08	6.81334
63.3	4.72816
63.52	11.4587
63.74	3.32612
63.96	7.36591
64.18	18.4045
64.4	5.62204
64.62	4.50604
64.84	7.65936
65.06	14.1036
65.28	13.2695
65.5	10.3913
65.72	2.59128
65.94	10.0052
66.16	8.04639
66.38	5.89233
66.6	6.68631
66.82	0.732135
67.04	16.5597
67.26	10.0929
67.48	15.772
67.7	7.51776
67.92	0.516955
68.14	10.1871
68.36	6.71644
68.58	6.80121
68.8	5.93938
69.02	2.00801
69.24	4.9401
69.46	8.00663
69.68	11.0897
69.9	0.644491
70.12	6.4461
70.34	14.7392
70.56	10.8444
70.78	3.92847
71	1.16097
71.22	8.8458
71.44	4.81938
71.66	6.9074
71.88	12.9278
72.1	5.09151
72.32	7.82009
72.54	0.805226
72.76	1.05233
72.98	8.11543
73.2	8.2322
73.42	8.51439
73.64	4.46382
73.86	6.47872
74.08	14.4811
74.3	7.52676
74.52	2.81988
74.74	9.90419
74.96	1.40032
75.18	4.72341
75.4	11.6225
75.62	5.61683
75.84	11.4553
76.06	9.43771
76.28	6.57419
76.5	2.60287
76.72	0.658222
76.94	6.53701
77.16	3.60183
77.38	4.79517
77.6	11.832
77.82	1.09466
78.04	19.1004
78.26	10.0897
78.48	6.09842
78.7	4.02239
78.92	3.30054
79.14	13.0692
79.36	8.92152
79.58	7.7136
79.8	4.50129
80.02	1.58386
80.24	10.2739
80.46	7.19331
80.68	5.22029
80.9	2.26356
81.12	4.15255
81.34	1.84197
81.56	2.2306
81.78	13.3751
82	1.65762
82.22	6.73236
82.44	2.71718
82.66	2.07492
82.88	1.13293
83.1	7.43683
83.32	6.75248
83.54	6.87717
83.76	10.9829
83.98	8.96105
84.2	7.09724
84.42	10.9545
84.64	5.96076
84.86	0.047734
85.08	3.20937
85.3	5.65845
85.52	9.77858
85.74	4.56262
85.96	5.70507
86.18	8.74675
86.4	1.73906
86.62	3.85018
86.84	0.048559
87.06	1.19724
87.28	8.39527
87.5	4.52145
87.72	6.73914
87.94	6.76242
88.16	5.87097
88.38	3.94393
88.6	6.07865
88.82	10.2988
89.04	5.32962
89.26	2.33425
89.48	4.51299
89.7	6.00567
89.92	9.59732
