Measurement: Powder, Xray Data XY Processed
Mineral: Mesolite
Rruff sample: R050013
Ideal chemistry: Na_2_Ca_2_(Si_9_Al_6_)O_30_8H_2_O
Locality: Poona, Maharashtra, India
Source: University of Arizona Mineral Museum
Description: Clear to white elongated prismatic single crystal
Diffraction sample description: Powder
Measured chemistry: Na_2.00_Ca_2.00_(Si_9.00_Al_6.00_)O_30_Â·8H_2_O
Cell parameters: a: 18.4085(7) b: 56.651(4) c: 6.5451(8) alpha: 90. beta: 90. gamma: 90. volume: 6825.7(7) crystal system: orthorhombic
x	intensity
5	0
5.22	25.053
5.44	1.37
5.66	14.499
5.88	10.355
6.1	1.583
6.32	3.006
6.54	11.045
6.76	14.75
6.98	10.828
7.2	21.95
7.42	1.038
7.64	4.981
7.86	1.19
8.08	12.419
8.3	8.11
8.52	0.24
8.74	4.161
8.96	9.46
9.18	8.012
9.4	15.205
9.62	4.182
9.84	0.987
10.06	5.142
10.28	5.196
10.5	7.334
10.72	8.338
10.94	7.786
11.16	5.134
11.38	9.015
11.6	1.95
11.82	6.936
12.04	12.878
12.26	4.678
12.48	11.279
12.7	12.149
12.92	10.857
13.14	10.93
13.36	27.736
13.58	12.254
13.8	7.198
14.02	5.185
14.24	2.781
14.46	28.313
14.68	11.59
14.9	5.124
15.12	201.155
15.34	2.075
15.56	4.558
15.78	8.462
16	2.807
16.22	10.671
16.44	9.46
16.66	5.032
16.88	6.16
17.1	0.281
17.32	7.482
17.54	12.195
17.76	13.685
17.98	0.039
18.2	7.008
18.42	7.15
18.64	26.047
18.86	105.356
19.08	8.639
19.3	108.677
19.52	9.855
19.74	5.248
19.96	9.242
20.18	124.526
20.4	200.565
20.62	27.117
20.84	4.803
21.06	20.598
21.28	24.864
21.5	102.194
21.72	22.779
21.94	16.673
22.16	4.772
22.38	10.246
22.6	4.367
22.82	0.583
23.04	1.099
23.26	12.544
23.48	1.603
23.7	11.968
23.92	8.026
24.14	12.777
24.36	9.643
24.58	4.018
24.8	16.198
25.02	13.031
25.24	10.032
25.46	5.143
25.68	10.026
25.9	3.705
26.12	5.54
26.34	49.694
26.56	22.019
26.78	21.079
27	53.405
27.22	50.179
27.44	10.868
27.66	24.259
27.88	20.251
28.1	8.136
28.32	20.012
28.54	1.277
28.76	0.004
28.98	14.44
29.2	10.91
29.42	26.728
29.64	50.207
29.86	135.252
30.08	133.335
30.3	82.121
30.52	77.885
30.74	50.498
30.96	327.122
31.18	27.867
31.4	51.713
31.62	4.605
31.84	4.373
32.06	0.989
32.28	10.74
32.5	5.775
32.72	4.737
32.94	14.393
33.16	13.59
33.38	13.871
33.6	12.804
33.82	3.14
34.04	5.81
34.26	9.784
34.48	6.772
34.7	10.842
34.92	11.856
35.14	5.355
35.36	9.121
35.58	1.196
35.8	8.966
36.02	8.913
36.24	3.895
36.46	32.246
36.68	0.514
36.9	6.318
37.12	45.285
37.34	6.4
37.56	1.79
37.78	1.754
38	0.388
38.22	12.484
38.44	5.408
38.66	7.248
38.88	13.234
39.1	0.299
39.32	4.011
39.54	11.646
39.76	14.079
39.98	3.519
40.2	10.185
40.42	9.72
40.64	8.653
40.86	14.634
41.08	87.995
41.3	26.045
41.52	16.864
41.74	1.892
41.96	10.48
42.18	4.154
42.4	5.833
42.62	0.494
42.84	10.122
43.06	2.536
43.28	19.032
43.5	20.384
43.72	40.599
43.94	22.037
44.16	16.178
44.38	9.683
44.6	1.817
44.82	15.07
45.04	8.461
45.26	1.879
45.48	19.867
45.7	14.803
45.92	15.261
46.14	14.673
46.36	28.472
46.58	1.155
46.8	12.605
47.02	12.95
47.24	30.136
47.46	8.872
47.68	13.706
47.9	27.362
48.12	17.108
48.34	15.292
48.56	30.072
48.78	23.02
49	15.291
49.22	14.818
49.44	9.279
49.66	7.851
49.88	4.809
50.1	4.424
50.32	5.924
50.54	35.108
50.76	8.512
50.98	2.349
51.2	14.643
51.42	2.853
51.64	6.281
51.86	8.577
52.08	11.729
52.3	24.368
52.52	16.009
52.74	16.76
52.96	0.836
53.18	11.445
53.4	30.422
53.62	4.433
53.84	1.742
54.06	8.751
54.28	7.853
54.5	13.187
54.72	10.114
54.94	7.021
55.16	3.732
55.38	13.529
55.6	6.541
55.82	5.487
56.04	17.4
56.26	24.696
56.48	0.84
56.7	7.987
56.92	11.619
57.14	12.386
57.36	9.864
57.58	3.286
57.8	1.88
58.02	15.574
58.24	3.339
58.46	13.929
58.68	5.629
58.9	1.251
59.12	2.651
59.34	17.418
59.56	25.318
59.78	15.629
60	9.168
60.22	16.428
60.44	17.339
60.66	21.284
60.88	30.398
61.1	4.519
61.32	10.575
61.54	2.425
61.76	4.503
61.98	2.144
62.2	0.664
62.42	15.083
62.64	6.515
62.86	12.139
63.08	12.97
63.3	26.777
63.52	5.492
63.74	12.767
63.96	9.738
64.18	3.812
64.4	0.934
64.62	5.076
64.84	8.107
65.06	8.211
65.28	14.828
65.5	6.281
65.72	16.233
65.94	12.146
66.16	1.898
66.38	5.865
66.6	7.367
66.82	2.181
67.04	11.202
67.26	10.942
67.48	13.899
67.7	0.867
67.92	0.114
68.14	1.795
68.36	7.659
68.58	8.17
68.8	8.75
69.02	14.355
69.24	5.317
69.46	11.585
69.68	7.109
69.9	24.435
70.12	16.132
70.34	5.275
70.56	0.635
70.78	9.348
71	7.509
71.22	28.458
71.44	9.512
71.66	13.281
71.88	6.678
72.1	13.248
72.32	18.903
72.54	25.601
72.76	21.41
72.98	7.491
73.2	0.181
73.42	1.263
73.64	3.674
73.86	8.431
74.08	10.386
74.3	0.776
74.52	4.172
74.74	9.321
74.96	2.488
75.18	6.283
75.4	6.291
75.62	8.235
75.84	7.376
76.06	8.276
76.28	9.029
76.5	2.537
76.72	1.646
76.94	6.057
77.16	0.782
77.38	18.966
77.6	7.777
77.82	2.61
78.04	10.375
78.26	0.208
78.48	3.853
78.7	2.007
78.92	7.023
79.14	17.893
79.36	5.878
79.58	6.967
79.8	5.604
80.02	0.49
80.24	11.592
80.46	5.552
80.68	8.517
80.9	13.376
81.12	8.181
81.34	7.289
81.56	0.526
81.78	7.818
82	10.971
82.22	5.375
82.44	8.648
82.66	6.083
82.88	14.388
83.1	5.552
83.32	9.907
83.54	2.173
83.76	7.372
83.98	7.631
84.2	18.624
84.42	6.636
84.64	4.665
84.86	10.595
85.08	1.846
85.3	6.044
85.52	8.383
85.74	6.717
85.96	3.904
86.18	0.812
86.4	1.949
86.62	4.183
86.84	1.398
87.06	13.311
87.28	8.307
87.5	5.13
87.72	4.947
87.94	15.63
88.16	2.182
88.38	4.917
88.6	11.717
88.82	13.396
89.04	5.047
89.26	0.16
89.48	4.789
89.7	8.637
89.92	8.281
