Measurement: Powder, Xray Data XY Processed
Mineral: Mesolite
Rruff sample: R040139
Ideal chemistry: Na_2_Ca_2_(Si_9_Al_6_)O_30_8H_2_O
Locality: Lake Superior beach,  41 miles north of Tofte, Minnesota, USA
Source: University of Arizona Mineral Museum
Description: Aggregate of white radiating thin acicular crystals.
Diffraction sample description: Powder
Measured chemistry: Na_1.95_Ca_1.89_(Si_9.21_Al_5.82_)O_30_Â·8H_2_O
Cell parameters: a: 18.408(2) b: 56.605(8) c: 6.544(2) alpha: 90. beta: 90. gamma: 90. volume: 6819(1) crystal system: orthorhombic
x	intensity
5	0
5.22	6.32544
5.44	9.79951
5.66	11.0505
5.88	15.8264
6.1	14.6669
6.32	14.3669
6.54	7.03578
6.76	2.76902
6.98	11.8859
7.2	8.87987
7.42	12.801
7.64	1.67942
7.86	6.01769
8.08	3.99829
8.3	2.70501
8.52	5.25287
8.74	11.6233
8.96	13.4551
9.18	4.00399
9.4	6.451
9.62	0.251381
9.84	7.1765
10.06	4.90147
10.28	3.0361
10.5	10.9521
10.72	14.2406
10.94	7.13605
11.16	5.8891
11.38	15.1358
11.6	0.976471
11.82	6.76725
12.04	9.31385
12.26	2.69719
12.48	2.38178
12.7	5.01638
12.92	5.78812
13.14	16.6774
13.36	111.318
13.58	60.0207
13.8	6.5154
14.02	2.90179
14.24	0.33209
14.46	41.6673
14.68	16.0088
14.9	13.7722
15.12	380.977
15.34	14.8057
15.56	1.07652
15.78	3.68234
16	4.28694
16.22	15.5361
16.44	10.7392
16.66	4.42703
16.88	16.1269
17.1	10.8671
17.32	5.02791
17.54	3.83211
17.76	4.36967
17.98	11.4125
18.2	10.3935
18.42	5.38363
18.64	11.1376
18.86	215.386
19.08	23.8353
19.3	173.726
19.52	8.52563
19.74	8.73045
19.96	8.75234
20.18	200.786
20.4	182.016
20.62	13.6738
20.84	10.0763
21.06	22.2698
21.28	44.7479
21.5	75.2954
21.72	2.89638
21.94	3.04589
22.16	6.87741
22.38	6.33565
22.6	18.0579
22.82	17.8376
23.04	10.8598
23.26	5.28575
23.48	4.37606
23.7	12.7899
23.92	5.06454
24.14	9.34984
24.36	11.4658
24.58	2.07758
24.8	8.58826
25.02	11.3084
25.24	7.89474
25.46	4.55813
25.68	8.46448
25.9	4.84876
26.12	9.55464
26.34	13.2035
26.56	16.2353
26.78	7.29959
27	12.9107
27.22	0.586983
27.44	0.728899
27.66	44.8557
27.88	27.0461
28.1	47.3211
28.32	73.564
28.54	10.6585
28.76	18.9561
28.98	49.7153
29.2	0.433926
29.42	3.45237
29.64	7.13356
29.86	12.8495
30.08	24.7562
30.3	12.8621
30.52	152.79
30.74	29.7293
30.96	346.977
31.18	153.501
31.4	162.042
31.62	5.927
31.84	6.92869
32.06	3.11124
32.28	15.2966
32.5	3.33494
32.72	19.1065
32.94	15.3743
33.16	3.90869
33.38	10.6136
33.6	12.2308
33.82	1.70164
34.04	3.0601
34.26	3.02595
34.48	8.27873
34.7	10.3759
34.92	25.4889
35.14	2.42657
35.36	3.76541
35.58	9.6922
35.8	7.55913
36.02	9.51708
36.24	23.5638
36.46	31.398
36.68	30.0203
36.9	11.9886
37.12	55.6955
37.34	15.7206
37.56	4.85375
37.78	1.25396
38	3.52408
38.22	0.343599
38.44	1.91718
38.66	11.6643
38.88	4.63374
39.1	15.7331
39.32	4.07859
39.54	9.19568
39.76	22.6762
39.98	6.37469
40.2	9.32041
40.42	7.37759
40.64	1.46755
40.86	10.7384
41.08	74.963
41.3	16.9443
41.52	20.3116
41.74	5.10206
41.96	14.143
42.18	1.47331
42.4	8.82035
42.62	10.1291
42.84	4.83575
43.06	2.97202
43.28	2.91922
43.5	11.0592
43.72	23.0475
43.94	1.48921
44.16	21.3037
44.38	14.2755
44.6	2.75867
44.82	16.2031
45.04	7.33871
45.26	1.93825
45.48	0.839522
45.7	17.4928
45.92	5.15562
46.14	7.81538
46.36	5.35646
46.58	20.1934
46.8	2.24712
47.02	10.2388
47.24	7.34045
47.46	6.15503
47.68	6.88756
47.9	9.6887
48.12	4.46293
48.34	0.966598
48.56	12.2389
48.78	17.4697
49	8.23466
49.22	30.9297
49.44	15.7591
49.66	4.35317
49.88	4.76324
50.1	9.58236
50.32	21.8335
50.54	36.9541
50.76	27.2599
50.98	3.11755
51.2	1.99899
51.42	4.10985
51.64	7.33765
51.86	4.6218
52.08	11.2649
52.3	24.9244
52.52	23.6383
52.74	7.86468
52.96	5.69174
53.18	2.83132
53.4	17.9869
53.62	3.16735
53.84	8.67126
54.06	5.51923
54.28	6.35391
54.5	5.616
54.72	10.2791
54.94	1.69687
55.16	5.92442
55.38	0.744763
55.6	7.03401
55.82	5.3869
56.04	0.737457
56.26	21.7578
56.48	14.5322
56.7	18.0222
56.92	15.0522
57.14	15.2722
57.36	23.7039
57.58	7.50443
57.8	9.58826
58.02	15.5726
58.24	23.8946
58.46	15.2701
58.68	6.29661
58.9	1.03083
59.12	9.95294
59.34	7.46862
59.56	5.83467
59.78	1.96959
60	10.944
60.22	0.686856
60.44	7.69756
60.66	10.4584
60.88	10.0305
61.1	8.88976
61.32	4.77262
61.54	6.61274
61.76	0.427444
61.98	6.22095
62.2	14.0465
62.42	5.81866
62.64	2.625
62.86	4.51126
63.08	21.1638
63.3	25.2024
63.52	14.3053
63.74	16.3222
63.96	10.4546
64.18	10.6403
64.4	6.89122
64.62	3.17206
64.84	0.660116
65.06	16.3474
65.28	9.47175
65.5	1.77252
65.72	1.5422
65.94	0.634571
66.16	16.9527
66.38	2.97774
66.6	9.93794
66.82	5.87559
67.04	10.6747
67.26	9.42973
67.48	2.22215
67.7	20.2574
67.92	11.0754
68.14	15.1433
68.36	7.92395
68.58	5.60817
68.8	0.561854
69.02	1.03891
69.24	3.17097
69.46	9.05414
69.68	2.24647
69.9	8.74368
70.12	1.58993
70.34	0.921033
70.56	13.59
70.78	15.2552
71	13.9123
71.22	10.2414
71.44	3.43831
71.66	7.17361
71.88	9.84215
72.1	10.0009
72.32	13.2986
72.54	1.5545
72.76	5.97015
72.98	0.598167
73.2	4.78592
73.42	4.26298
73.64	4.12077
73.86	6.52636
74.08	6.2629
74.3	3.50584
74.52	8.91178
74.74	3.87126
74.96	2.13618
75.18	3.44349
75.4	4.72156
75.62	2.98201
75.84	4.07132
76.06	0.065899
76.28	4.01071
76.5	7.58404
76.72	10.4993
76.94	0.972565
77.16	6.81638
77.38	15.5111
77.6	8.05886
77.82	6.72536
78.04	12.3815
78.26	6.14644
78.48	5.13035
78.7	2.9296
78.92	1.77783
79.14	4.69331
79.36	14.4722
79.58	2.14689
79.8	2.1901
80.02	11.2226
80.24	8.20495
80.46	6.40696
80.68	6.6074
80.9	6.69795
81.12	8.09969
81.34	17.3608
81.56	4.66706
81.78	8.11422
82	4.47732
82.22	4.71156
82.44	5.96563
82.66	7.26827
82.88	8.32039
83.1	4.45907
83.32	0.505487
83.54	12.4443
83.76	6.49222
83.98	8.43229
84.2	4.29342
84.42	5.47792
84.64	0.5364
84.86	5.57114
85.08	5.54334
85.3	4.86701
85.52	4.95312
85.74	9.08457
85.96	2.24733
86.18	4.44088
86.4	7.30649
86.62	9.21048
86.84	4.27294
87.06	5.35312
87.28	1.42837
87.5	3.46755
87.72	3.45594
87.94	5.448
88.16	3.56713
88.38	8.70201
88.6	6.74714
88.82	5.8
89.04	1.90879
89.26	5.02844
89.48	5.18334
89.7	1.42207
89.92	1.82908
