Measurement: Powder, Xray Data XY Processed
Mineral: Metastibnite
Rruff sample: R060755
Ideal chemistry: Sb^3+^_2_S^2-^_3_
Locality: San Jose mine, Oruro, Bolivia
Source: Michael Scott
Description: Dark red semi-metallic botryoidal groups
Diffraction sample description: Powder
x	intensity
5	0
5.22	6.80354
5.44	11.3598
5.66	3.85491
5.88	10.4079
6.1	4.94948
6.32	5.43767
6.54	5.69244
6.76	12.9003
6.98	7.3261
7.2	8.50054
7.42	1.76074
7.64	7.73783
7.86	3.98013
8.08	8.11243
8.3	5.01534
8.52	2.01069
8.74	4.22761
8.96	4.48698
9.18	12.7118
9.4	7.53944
9.62	16.6975
9.84	2.67668
10.06	1.08154
10.28	8.98572
10.5	9.99617
10.72	1.01198
10.94	1.96784
11.16	4.90279
11.38	7.93562
11.6	7.00222
11.82	3.00444
12.04	4.08368
12.26	4.08441
12.48	1.84598
12.7	4.03683
12.92	5.97857
13.14	9.97939
13.36	4.90449
13.58	0.001096
13.8	2.71164
14.02	12.5092
14.24	7.39858
14.46	0.06198
14.68	1.56459
14.9	3.11593
15.12	4.58819
15.34	5.01295
15.56	9.5905
15.78	3.21629
16	4.79277
16.22	2.43533
16.44	7.55579
16.66	1.22853
16.88	6.4695
17.1	6.4292
17.32	13.3953
17.54	13.5692
17.76	10.6077
17.98	7.6081
18.2	13.8609
18.42	9.10268
18.64	7.11848
18.86	7.64336
19.08	10.6356
19.3	6.26769
19.52	1.64346
19.74	6.58704
19.96	9.49485
20.18	5.47224
20.4	4.54871
20.62	2.25366
20.84	6.4141
21.06	1.77047
21.28	4.27764
21.5	4.98934
21.72	5.64471
21.94	5.89241
22.16	3.39857
22.38	6.8037
22.6	1.30421
22.82	1.77591
23.04	6.03867
23.26	1.22316
23.48	8.2867
23.7	7.54901
23.92	6.94109
24.14	7.35228
24.36	2.74386
24.58	4.15161
24.8	12.7371
25.02	1.56872
25.24	8.08206
25.46	0.204922
25.68	1.56449
25.9	0.411634
26.12	17.4969
26.34	9.59517
26.56	0.008179
26.78	11.378
27	8.5821
27.22	2.16713
27.44	11.8532
27.66	10.2115
27.88	4.11032
28.1	9.96291
28.32	9.2442
28.54	14.2116
28.76	1.47868
28.98	0.507973
29.2	6.60137
29.42	9.70611
29.64	0.940163
29.86	13.9552
30.08	12.8286
30.3	3.87166
30.52	0.750042
30.74	1.82466
30.96	12.4229
31.18	3.15143
31.4	12.9028
31.62	14.7178
31.84	10.5847
32.06	3.96902
32.28	2.73577
32.5	4.46159
32.72	6.42746
32.94	2.35743
33.16	8.96693
33.38	1.19993
33.6	14.4316
33.82	9.72848
34.04	2.8692
34.26	7.75048
34.48	20.2197
34.7	4.0022
34.92	5.46731
35.14	13.9038
35.36	6.59708
35.58	13.1082
35.8	18.3261
36.02	12.5401
36.24	19.4656
36.46	2.23419
36.68	8.34582
36.9	10.536
37.12	9.85243
37.34	7.88101
37.56	5.61625
37.78	4.72893
38	6.00334
38.22	7.17614
38.44	8.20366
38.66	3.80216
38.88	5.95813
39.1	5.037
39.32	6.84489
39.54	10.6556
39.76	4.65859
39.98	5.32382
40.2	0.589956
40.42	4.14414
40.64	6.17682
40.86	16.924
41.08	0.775602
41.3	11.1761
41.52	6.08208
41.74	8.00103
41.96	9.07603
42.18	5.13255
42.4	6.43666
42.62	7.37694
42.84	5.82023
43.06	12.6189
43.28	1.69571
43.5	5.37599
43.72	6.45505
43.94	1.72802
44.16	1.88129
44.38	12.1906
44.6	8.14425
44.82	8.32302
45.04	7.01512
45.26	6.23095
45.48	13.3239
45.7	16.2038
45.92	1.15416
46.14	13.1233
46.36	12.125
46.58	5.62549
46.8	7.76
47.02	14.8725
47.24	2.75122
47.46	3.11898
47.68	0.269238
47.9	10.734
48.12	4.92114
48.34	11.0409
48.56	10.7593
48.78	16.5261
49	3.42786
49.22	4.17534
49.44	15.8839
49.66	1.90044
49.88	10.413
50.1	13.554
50.32	3.28724
50.54	5.42258
50.76	5.18914
50.98	9.55092
51.2	4.58061
51.42	5.479
51.64	5.36546
51.86	6.69746
52.08	3.56127
52.3	10.7491
52.52	5.86991
52.74	6.1456
52.96	11.9139
53.18	4.02428
53.4	9.87135
53.62	1.90512
53.84	6.90322
54.06	4.94255
54.28	16.9395
54.5	6.01439
54.72	3.94425
54.94	4.86923
55.16	12.8061
55.38	7.96872
55.6	11.2384
55.82	11.6411
56.04	8.02294
56.26	20.4038
56.48	15.8748
56.7	11.4051
56.92	11.7219
57.14	12.1067
57.36	2.7205
57.58	9.52839
57.8	2.15842
58.02	3.86402
58.24	3.68603
58.46	0.998665
58.68	9.94652
58.9	3.94965
59.12	6.93827
59.34	7.92879
59.56	4.12171
59.78	4.71993
60	14.6805
60.22	5.70726
60.44	2.9197
60.66	10.1952
60.88	2.87381
61.1	0.409422
61.32	3.57793
61.54	7.06604
61.76	6.6016
61.98	1.63221
62.2	6.28454
62.42	9.43953
62.64	6.68753
62.86	0.919587
63.08	12.1329
63.3	0.976792
63.52	9.07157
63.74	3.69096
63.96	1.59691
64.18	9.14624
64.4	6.21428
64.62	8.1009
64.84	6.04432
65.06	9.01103
65.28	0.139035
65.5	7.79175
65.72	3.91495
65.94	0.045249
66.16	6.47666
66.38	1.66379
66.6	14.7744
66.82	3.70121
67.04	12.8394
67.26	3.26204
67.48	6.10271
67.7	6.03744
67.92	8.01481
68.14	7.85078
68.36	4.93156
68.58	5.41934
68.8	7.36569
69.02	5.39324
69.24	3.21818
69.46	7.14772
69.68	1.26247
69.9	3.00156
70.12	1.98141
70.34	3.19288
70.56	2.25685
70.78	2.35154
71	7.40601
71.22	2.55913
71.44	14.503
71.66	6.62416
71.88	5.78131
72.1	4.731
72.32	10.5936
72.54	5.64604
72.76	7.65452
72.98	2.4903
73.2	3.94022
73.42	8.04106
73.64	3.88209
73.86	0.099222
74.08	8.8903
74.3	5.89751
74.52	9.85946
74.74	3.99496
74.96	10.1779
75.18	11.0306
75.4	6.85861
75.62	3.50174
75.84	1.57683
76.06	1.31955
76.28	0.189525
76.5	0.880308
76.72	7.79771
76.94	7.91295
77.16	5.8057
77.38	0.39888
77.6	9.57572
77.82	7.77761
78.04	3.87154
78.26	9.79986
78.48	3.62539
78.7	8.46707
78.92	3.36804
79.14	9.4879
79.36	7.51524
79.58	3.55032
79.8	6.64076
80.02	7.93676
80.24	5.79458
80.46	4.14133
80.68	3.14803
80.9	2.26017
81.12	10.5566
81.34	8.68769
81.56	0.450937
81.78	2.18368
82	0.951981
82.22	6.9497
82.44	9.76095
82.66	5.62395
82.88	5.32879
83.1	4.40979
83.32	4.4946
83.54	6.1633
83.76	9.1814
83.98	4.4157
84.2	11.598
84.42	5.60515
84.64	9.50312
84.86	4.52057
85.08	9.49878
85.3	4.31151
85.52	7.30633
85.74	8.25668
85.96	1.24321
86.18	7.29823
86.4	4.13066
86.62	4.09036
86.84	3.25508
87.06	6.646
87.28	9.74675
87.5	7.882
87.72	7.95586
87.94	4.94073
88.16	12.9879
88.38	8.01352
88.6	11.019
88.82	7.85482
89.04	5.61959
89.26	2.46518
89.48	4.44348
89.7	7.84665
89.92	1.96801
