Measurement: Powder, Xray Data XY Processed
Mineral: Metavoltine
Rruff sample: R070542
Ideal chemistry: K_2_Na_6_Fe^2+^Fe^3+^_6_O_2_(S^6+^O_4_)_12_18H_2_O
Locality: Vulcano Island. Lipari Islands, Messina Province, Sicily, Italy
Source: James Shigley
Description: Dark yellow granular crystals
Diffraction sample description: Powder, using Mo radiation
Cell parameters: a: 9.545(2) b: 9.545(2) c: 18.133(3) alpha: 90 beta: 90 gamma: 120 volume: 1430.9(5) crystal system: hexagonal
x	intensity
5.27	0
5.39	22.0707
5.51	3.99552
5.63	44.7176
5.75	20.726
5.87	2.81923
5.99	0.37537
6.11	6.30648
6.23	20.7801
6.35	95.2672
6.47	176.066
6.59	269.88
6.71	283.175
6.83	170.469
6.95	74.9157
7.07	27.8828
7.19	22.4324
7.31	11.5447
7.43	22.5918
7.55	8.81414
7.67	16.2357
7.79	2.22498
7.91	5.40581
8.03	21.1655
8.15	40.5003
8.27	96.7526
8.39	206.325
8.51	279.947
8.63	294.484
8.75	300.973
8.87	224.758
8.99	139.312
9.11	56.1776
9.23	14.8239
9.35	2.88623
9.47	18.0981
9.59	104.209
9.71	196.304
9.83	268.874
9.95	316.202
10.07	320.051
10.19	277.034
10.31	177.31
10.43	72.9187
10.55	50.4306
10.67	171.374
10.79	426.736
10.91	538.92
11.03	426.891
11.15	178.408
11.27	28.8792
11.39	10.6312
11.51	7.08605
11.63	7.52688
11.75	87.939
11.87	135.096
11.99	141.876
12.11	161.242
12.23	317.351
12.35	565.44
12.47	610.81
12.59	414.667
12.71	145.831
12.83	59.5241
12.95	168.496
13.07	442.128
13.19	743.21
13.31	837.734
13.43	656.045
13.55	410.754
13.67	320.58
13.79	328.189
13.91	406.021
14.03	511.789
14.15	582.823
14.27	505.707
14.39	354.566
14.51	354.172
14.63	453.975
14.75	469.987
14.87	376.334
14.99	244.75
15.11	110.901
15.23	24.029
15.35	8.08529
15.47	7.29734
15.59	24.3434
15.71	74.5421
15.83	82.6154
15.95	67.7994
16.07	46.179
16.19	53.5575
16.31	62.4236
16.43	42.1201
16.55	4.21121
16.67	6.54229
16.79	18.6174
16.91	0.124496
17.03	46.9587
17.15	149.282
17.27	203.642
17.39	168.324
17.51	95.9449
17.63	97.9175
17.75	213.391
17.87	265.793
17.99	240.991
18.11	169.052
18.23	156.023
18.35	253.165
18.47	313.033
18.59	329.149
18.71	272.181
18.83	196.75
18.95	127.855
19.07	79.0845
19.19	59.269
19.31	49.2366
19.43	26.884
19.55	17.0477
19.67	20.483
19.79	49.5501
19.91	108.092
20.03	155.475
20.15	181.81
20.27	143.629
20.39	109.435
20.51	76.2028
20.63	41.3679
20.75	12.2248
20.87	7.56309
20.99	4.77556
21.11	6.15341
21.23	6.91314
21.35	4.96596
21.47	5.59896
21.59	2.7469
21.71	26.3787
21.83	39.7234
21.95	55.9362
22.07	63.7727
22.19	79.9223
22.31	85.5418
22.43	82.4813
22.55	148.532
22.67	225.291
22.79	218.396
22.91	138.811
23.03	66.3576
23.15	70.0133
23.27	93.8199
23.39	105.444
23.51	85.6192
23.63	104.92
23.75	118.634
23.87	104.884
23.99	76.6428
24.11	71.3304
24.23	104.601
24.35	151.098
24.47	166.967
24.59	123.2
24.71	60.3155
24.83	23.5546
24.95	6.2823
25.07	0.026256
25.19	33.626
25.31	79.2625
25.43	91.4755
25.55	55.7486
25.67	9.31483
25.79	0.23703
25.91	1.43632
26.03	5.72413
26.15	1.17595
26.27	20.2651
26.39	56.709
26.51	98.1297
26.63	104.067
26.75	79.4257
26.87	63.2262
26.99	72.7822
27.11	106.824
27.23	103.25
27.35	71.5471
27.47	57.0721
27.59	77.5487
27.71	95.6114
27.83	101.816
27.95	70.0162
28.07	37.0375
28.19	39.6184
28.31	54.5787
28.43	81.3964
28.55	92.0437
28.67	91.9071
28.79	51.719
28.91	32.462
29.03	19.159
29.15	6.88903
29.27	7.6563
29.39	4.3938
29.51	3.82984
29.63	5.07843
29.75	0.196356
29.87	1.00723
29.99	8.93496
30.11	3.78876
30.23	1.20505
30.35	13.2739
30.47	30.1541
30.59	45.8544
30.71	55.9008
30.83	53.5497
30.95	52.8041
31.07	58.9113
31.19	68.6575
31.31	50.9727
31.43	27.3947
31.55	11.5506
31.67	9.4448
31.79	26.0987
31.91	27.5108
32.03	32.3337
32.15	51.9888
32.27	47.1861
32.39	44.4809
32.51	32.6864
32.63	23.8619
32.75	34.2091
32.87	36.6739
32.99	46.3436
33.11	51.3366
33.23	45.4744
33.35	31.6041
33.47	8.12931
33.59	3.13816
33.71	2.63065
33.83	2.79345
33.95	7.51755
34.07	8.70463
34.19	12.5483
34.31	16.3511
34.43	29.9608
34.55	38.7232
34.67	38.0474
34.79	40.3539
34.91	40.0591
35.03	34.7825
35.15	22.6906
35.27	5.40906
35.39	1.78833
35.51	1.18419
35.63	2.75539
35.75	0.683481
35.87	0.716356
35.99	0.826659
36.11	1.98092
36.23	2.56443
36.35	13.1647
36.47	19.4569
36.59	24.926
36.71	17.3122
36.83	4.3347
36.95	5.99233
37.07	5.0672
37.19	11.1264
37.31	8.41197
37.43	12.215
37.55	13.9554
37.67	13.4554
37.79	12.6274
37.91	24.4147
38.03	20.4929
38.15	14.9593
38.27	6.14696
38.39	5.89206
38.51	10.0346
38.63	9.30542
38.75	10.502
38.87	13.9442
38.99	20.6607
39.11	22.2757
39.23	19.5217
39.35	25.1879
39.47	18.6013
39.59	4.43342
39.71	12.1384
39.83	6.82468
39.95	3.43147
40.07	12.4184
40.19	15.3197
40.31	15.2483
40.43	11.016
40.55	22.9584
40.67	34.6111
40.79	30.1008
40.91	36.6702
41.03	26.2062
41.15	17.5066
41.27	23.5118
41.39	29.2034
41.51	25.8389
41.63	27.4976
41.75	18.7116
41.87	10.6321
41.99	0.55271
42.11	14.3714
42.23	0.439252
