Measurement: Powder, Xray Data XY Processed
Mineral: Metatorbernite
Rruff sample: R070686
Ideal chemistry: Cu^2+^(U^6+^O_2_)_2_(PO_4_)_2_8H_2_O
Locality: Fichtelgebirge, Franconia, Bavaria, Germany
Source: Michael Scott
Description: Green tabular crystals
Diffraction sample description: Powder
Cell parameters: a: 6.9645(2) b: 6.9645(2) c: 17.3220(7) alpha: 90 beta: 90 gamma: 90 volume: 840.19(6) crystal system: tetragonal
x	intensity
5	0
5.22	16.6701
5.44	15.7375
5.66	11.0265
5.88	5.35989
6.1	3.65876
6.32	12.5648
6.54	10.634
6.76	5.42978
6.98	6.07298
7.2	5.73595
7.42	15.4276
7.64	3.04942
7.86	11.9543
8.08	5.38064
8.3	4.13717
8.52	1.17663
8.74	7.69094
8.96	3.74566
9.18	27.6638
9.4	0.308615
9.62	5.74548
9.84	15.46
10.06	185.505
10.28	675.372
10.5	37.7978
10.72	18.8593
10.94	9.66629
11.16	4.48985
11.38	4.51102
11.6	2.24423
11.82	15.2519
12.04	5.23948
12.26	14.2572
12.48	4.93158
12.7	17.2731
12.92	5.27855
13.14	2.56778
13.36	0.485212
13.58	3.11429
13.8	13.9103
14.02	7.99265
14.24	4.62081
14.46	3.65799
14.68	9.14854
14.9	2.31106
15.12	12.1713
15.34	5.02246
15.56	9.8485
15.78	5.44593
16	3.42251
16.22	49.6016
16.44	71.0951
16.66	7.11745
16.88	11.0412
17.1	11.0127
17.32	0.038908
17.54	10.1868
17.76	20.2552
17.98	191.789
18.2	12.6859
18.42	18.0817
18.64	11.8708
18.86	4.42934
19.08	13.4775
19.3	2.49238
19.52	5.49906
19.74	5.25427
19.96	0.356346
20.18	1.6423
20.4	17.8017
20.62	56.7071
20.84	53.6127
21.06	11.9385
21.28	12.6913
21.5	6.04137
21.72	6.876
21.94	16.2931
22.16	7.34686
22.38	6.8481
22.6	2.74127
22.82	2.96381
23.04	10.1106
23.26	9.2114
23.48	6.02464
23.7	9.62172
23.92	20.358
24.14	572.264
24.36	129.621
24.58	19.349
24.8	8.90348
25.02	4.38021
25.24	2.53945
25.46	52.4616
25.68	108.108
25.9	18.0023
26.12	7.70094
26.34	9.51059
26.56	6.56707
26.78	12.9279
27	5.60619
27.22	8.45191
27.44	22.7384
27.66	195.558
27.88	19.7342
28.1	3.02362
28.32	6.53237
28.54	0.130274
28.76	3.74218
28.98	6.95707
29.2	12.1947
29.42	12.0813
29.64	10.9867
29.86	11.8211
30.08	5.72903
30.3	17.3051
30.52	104.545
30.74	14.0896
30.96	13.0844
31.18	18.5604
31.4	0.34089
31.62	4.56607
31.84	2.41625
32.06	5.28027
32.28	2.04279
32.5	10.8444
32.72	12.1115
32.94	20.951
33.16	8.85192
33.38	17.2549
33.6	201.594
33.82	26.8245
34.04	4.00833
34.26	8.90696
34.48	10.7942
34.7	7.69183
34.92	13.5534
35.14	8.4325
35.36	29.1681
35.58	87.8979
35.8	14.8051
36.02	22.1483
36.24	11.0409
36.46	40.1873
36.68	13.5653
36.9	5.92178
37.12	4.33892
37.34	8.8325
37.56	0.254707
37.78	13.0298
38	48.2963
38.22	14.7644
38.44	11.6841
38.66	0.317645
38.88	6.34849
39.1	4.94569
39.32	1.17721
39.54	5.80364
39.76	6.98233
39.98	4.07031
40.2	24.7793
40.42	1.76123
40.64	11.4225
40.86	29.1825
41.08	63.9264
41.3	6.82219
41.52	11.2385
41.74	188.073
41.96	2.07593
42.18	8.1685
42.4	28.1259
42.62	61.3681
42.84	46.7122
43.06	7.5162
43.28	1.07276
43.5	1.75687
43.72	59.5344
43.94	37.1055
44.16	50.3296
44.38	65.6734
44.6	21.9191
44.82	1.10061
45.04	3.40145
45.26	3.27162
45.48	14.3757
45.7	85.6133
45.92	43.9684
46.14	5.4252
46.36	2.83446
46.58	9.5345
46.8	5.58014
47.02	5.74819
47.24	4.79586
47.46	9.86347
47.68	4.04382
47.9	8.48304
48.12	12.4744
48.34	6.28315
48.56	10.6282
48.78	0.398014
49	4.40604
49.22	10.0931
49.44	23.717
49.66	42.5328
49.88	16.664
50.1	11.2328
50.32	15.7627
50.54	24.257
50.76	3.81852
50.98	1.48372
51.2	2.68923
51.42	24.2075
51.64	15.8858
51.86	51.7432
52.08	10.8061
52.3	13.606
52.52	36.9338
52.74	20.6932
52.96	21.763
53.18	5.31047
53.4	3.47429
53.62	13.5709
53.84	20.5582
54.06	5.24641
54.28	5.60587
54.5	7.77829
54.72	4.5467
54.94	3.16487
55.16	4.3623
55.38	7.97541
55.6	0.691833
55.82	7.65973
56.04	16.4814
56.26	77.6749
56.48	34.9913
56.7	11.7498
56.92	9.25066
57.14	10.4405
57.36	17.1883
57.58	10.0107
57.8	1.10692
58.02	6.70889
58.24	9.43454
58.46	1.18956
58.68	37.0531
58.9	12.9516
59.12	2.72624
59.34	37.5416
59.56	63.9524
59.78	58.9976
60	59.9509
60.22	17.5437
60.44	6.63748
60.66	4.83237
60.88	4.29923
61.1	2.4099
61.32	1.57477
61.54	0.733204
61.76	5.46514
61.98	4.85737
62.2	12.2381
62.42	9.29705
62.64	6.31079
62.86	2.20276
63.08	9.18405
63.3	8.8146
63.52	7.52496
63.74	16.0774
63.96	20.0427
64.18	16.3292
64.4	9.61598
64.62	27.466
64.84	20.3567
65.06	7.41884
65.28	5.44307
65.5	8.08491
65.72	10.596
65.94	29.5218
66.16	55.9239
66.38	17.4198
66.6	3.74858
66.82	1.67542
67.04	5.54425
67.26	4.35757
67.48	20.8068
67.7	21.3233
67.92	7.96942
68.14	6.12083
68.36	7.90051
68.58	15.0939
68.8	28.1229
69.02	38.8872
69.24	25.241
69.46	6.23893
69.68	10.1972
69.9	0.472149
70.12	3.74003
70.34	11.898
70.56	10.1915
70.78	18.3785
71	17.63
71.22	10.461
71.44	7.87819
71.66	0.258928
71.88	16.0235
72.1	18.6883
72.32	22.0944
72.54	11.6453
72.76	1.37172
72.98	5.07487
73.2	0.690453
73.42	5.76634
73.64	7.20936
73.86	2.48488
74.08	13.9585
74.3	14.441
74.52	2.04371
74.74	4.7892
74.96	16.3638
75.18	8.79251
75.4	8.06829
75.62	2.75432
75.84	6.21007
76.06	12.0114
76.28	3.05533
76.5	4.78196
76.72	6.3432
76.94	15.9135
77.16	2.56015
77.38	1.20325
77.6	3.56697
77.82	5.70256
78.04	12.7312
78.26	11.6641
78.48	19.2836
78.7	6.0044
78.92	6.1829
79.14	7.81352
79.36	8.16475
79.58	6.56211
79.8	4.05364
80.02	8.608
80.24	4.0841
80.46	5.25227
80.68	22.5861
80.9	8.39584
81.12	5.63202
81.34	8.19928
81.56	2.1412
81.78	1.52951
82	4.48711
82.22	11.317
82.44	9.0354
82.66	7.78132
82.88	15.5658
83.1	10.1776
83.32	5.53952
83.54	22.2655
83.76	12.3172
83.98	17.0377
84.2	13.6574
84.42	18.0295
84.64	0.433594
84.86	0.935783
85.08	0.413447
85.3	4.37071
85.52	0.300467
85.74	10.7553
85.96	5.28299
86.18	6.61759
86.4	12.1741
86.62	1.87502
86.84	7.77383
87.06	6.59246
87.28	10.151
87.5	9.85112
87.72	8.10904
87.94	13.3221
88.16	5.78312
88.38	5.32168
88.6	16.2506
88.82	8.66339
89.04	12.0579
89.26	19.7712
89.48	8.62382
89.7	7.73618
89.92	0.796413
