Measurement: Powder, Xray Data XY Processed
Mineral: Metarossite
Rruff sample: R060598
Ideal chemistry: CaV^5+^_2_O_6_2H_2_O
Locality: Arrowhead Claim, Slick Rock, San Miguel County, Colorado, USA
Source: Michael Scott
Description: Light yellow massive
Diffraction sample description: Powder
Measured chemistry: (Ca_0.96_Al_0.02_[box]_0.02_)_Σ=1_V^5+^_2.00_O_6_·2H_2_O
Cell parameters: a: 6.2096(4) b: 7.0669(3) c: 7.7548(2) alpha: 93.147(7) beta: 96.538(3) gamma: 105.99(1) volume: 323.66(2) crystal system: triclinic
x	intensity
5	0
5.22	10.458
5.44	7.14
5.66	11.164
5.88	12.924
6.1	21.058
6.32	14.475
6.54	9.746
6.76	15.862
6.98	4.675
7.2	11.447
7.42	1.368
7.64	6.244
7.86	14.189
8.08	7.654
8.3	3.17
8.52	6.548
8.74	6.929
8.96	2.421
9.18	7.567
9.4	5.778
9.62	2.427
9.84	7.51
10.06	16.612
10.28	4.972
10.5	6.605
10.72	1.333
10.94	2.489
11.16	9.156
11.38	17.992
11.6	41.76
11.82	7.67
12.04	3.423
12.26	6.85
12.48	3.389
12.7	3.537
12.92	5.439
13.14	43.651
13.36	5.495
13.58	9.423
13.8	1.065
14.02	2.196
14.24	3.758
14.46	17.213
14.68	19.473
14.9	189.547
15.12	46.714
15.34	21.098
15.56	6.306
15.78	9.945
16	7.021
16.22	9.139
16.44	0.746
16.66	9.325
16.88	30.838
17.1	17.143
17.32	13.568
17.54	89.704
17.76	138.646
17.98	4.758
18.2	12.805
18.42	9.425
18.64	1.849
18.86	5.163
19.08	1.497
19.3	5.813
19.52	1.863
19.74	7.13
19.96	12.751
20.18	37.999
20.4	5.059
20.62	4.816
20.84	15.088
21.06	5.709
21.28	7.861
21.5	11.176
21.72	0.334
21.94	7.168
22.16	10.243
22.38	0.245
22.6	4.197
22.82	6.358
23.04	18.501
23.26	41.901
23.48	0.523
23.7	5.545
23.92	3.58
24.14	3.673
24.36	3.702
24.58	4.782
24.8	4.813
25.02	12.767
25.24	4.348
25.46	0.06
25.68	6.779
25.9	46.072
26.12	7.046
26.34	27.917
26.56	11.449
26.78	9.079
27	2.699
27.22	0.663
27.44	10.126
27.66	3.566
27.88	14.975
28.1	10.377
28.32	0.243
28.54	2.397
28.76	22.457
28.98	16.762
29.2	19.333
29.42	114.061
29.64	7.616
29.86	7.721
30.08	48.029
30.3	6.387
30.52	5.338
30.74	19.387
30.96	64.349
31.18	4.596
31.4	0.513
31.62	5.309
31.84	1.954
32.06	5.1
32.28	4.525
32.5	13.641
32.72	1.719
32.94	4.177
33.16	3.526
33.38	1.001
33.6	23.643
33.82	8.954
34.04	29.143
34.26	15.463
34.48	10.205
34.7	1.619
34.92	3.298
35.14	24.035
35.36	0.93
35.58	35.931
35.8	117.526
36.02	18.459
36.24	7.357
36.46	16.05
36.68	20.432
36.9	3.55
37.12	0.482
37.34	9.298
37.56	4.175
37.78	1.749
38	5.297
38.22	3.243
38.44	8.351
38.66	5.146
38.88	9.841
39.1	6.671
39.32	5.196
39.54	25.891
39.76	11.505
39.98	7.436
40.2	7.713
40.42	5.568
40.64	10.981
40.86	10.306
41.08	6.343
41.3	2.477
41.52	3.361
41.74	0.57
41.96	3.445
42.18	3.54
42.4	8.451
42.62	6.057
42.84	1.212
43.06	3.837
43.28	0.607
43.5	3.452
43.72	0.585
43.94	7.818
44.16	3.887
44.38	2.354
44.6	3.466
44.82	6.498
45.04	14.242
45.26	0.974
45.48	1.963
45.7	4.254
45.92	42.901
46.14	11.574
46.36	6.842
46.58	7.409
46.8	2.385
47.02	9.995
47.24	8.771
47.46	18.115
47.68	18.966
47.9	27.797
48.12	4.131
48.34	2.825
48.56	4.788
48.78	4.272
49	0.517
49.22	6.704
49.44	2.576
49.66	11.911
49.88	12.86
50.1	9.31
50.32	8.722
50.54	10.091
50.76	9.371
50.98	4.881
51.2	6.039
51.42	7.65
51.64	17.808
51.86	15.297
52.08	8.19
52.3	3.31
52.52	6.346
52.74	12.101
52.96	10.844
53.18	2.594
53.4	2.924
53.62	4.256
53.84	2.047
54.06	23.779
54.28	6.648
54.5	3.602
54.72	10.341
54.94	19.135
55.16	8.445
55.38	13.216
55.6	2.508
55.82	6.918
56.04	3.302
56.26	2.708
56.48	4.202
56.7	4.561
56.92	2.718
57.14	2.101
57.36	12.231
57.58	6.336
57.8	6.059
58.02	4.037
58.24	2.03
58.46	5.991
58.68	2.811
58.9	9.482
59.12	14.175
59.34	3.962
59.56	4.644
59.78	20.132
60	7.857
60.22	11.523
60.44	0.368
60.66	10.267
60.88	15.163
61.1	4.143
61.32	18.138
61.54	3.323
61.76	5.435
61.98	10.477
62.2	11.59
62.42	5.72
62.64	3.105
62.86	3
63.08	6.097
63.3	7.392
63.52	10.54
63.74	0.156
63.96	11.254
64.18	3.338
64.4	7.36
64.62	0.534
64.84	0.38
65.06	0.511
65.28	1.375
65.5	0.745
65.72	4.08
65.94	1.045
66.16	8.976
66.38	10.534
66.6	9.817
66.82	6.904
67.04	12.866
67.26	2.024
67.48	3.431
67.7	7.621
67.92	1.891
68.14	11.093
68.36	6.438
68.58	10.737
68.8	15.041
69.02	11.86
69.24	5.176
69.46	1.242
69.68	3.359
69.9	1.245
70.12	5.228
70.34	5.321
70.56	4.355
70.78	6.191
71	10.797
71.22	5.619
71.44	5.567
71.66	9.142
71.88	5.051
72.1	4.075
72.32	0.843
72.54	12.692
72.76	10.344
72.98	8.13
73.2	0.13
73.42	8.035
73.64	9.926
73.86	11.851
74.08	4.122
74.3	3.166
74.52	1.082
74.74	6.117
74.96	1.345
75.18	8.515
75.4	8.836
75.62	3.763
75.84	6.004
76.06	6.204
76.28	0.622
76.5	1.786
76.72	0.361
76.94	0.651
77.16	6.972
77.38	5.99
77.6	5.545
77.82	1.483
78.04	1.504
78.26	11.621
78.48	1.675
78.7	1.085
78.92	5.003
79.14	3.926
79.36	12.703
79.58	0.707
79.8	7.299
80.02	2.258
80.24	4.178
80.46	3.22
80.68	5.325
80.9	5.156
81.12	0.94
81.34	3.008
81.56	2.028
81.78	4.082
82	4.042
82.22	2.205
82.44	2.214
82.66	0.256
82.88	8.207
83.1	7.265
83.32	2.481
83.54	5.474
83.76	0.266
83.98	1.674
84.2	3.682
84.42	4.681
84.64	1.538
84.86	5.479
85.08	7.556
85.3	10.427
85.52	8.394
85.74	1.269
85.96	6.258
86.18	3.095
86.4	9.086
86.62	4.177
86.84	0.808
87.06	4.271
87.28	0.614
87.5	4.345
87.72	9.436
87.94	1.773
88.16	3.93
88.38	6.082
88.6	7.208
88.82	3.333
89.04	6.632
89.26	5.928
89.48	11.253
89.7	4.384
89.92	3.976
