Measurement: Powder, Xray Data XY Processed
Mineral: Meta-autunite
Rruff sample: R050612
Ideal chemistry: Ca(U^6+^O_2_)_2_(PO_4_)_2_6H_2_O
Locality: Daybreak mine, Mt. Spokane, Spokane County, Washington, USA
Source: Dave Bunk Minerals
Description: Green thin tabular crystal
Diffraction sample description: Powder
Measured chemistry: (Ca_0.85_[box]_0.15_)_Σ=1_(U_1.00_O_2_)_2_(P_1.00_O_4_)_2_·3((H_2_O)_0.90_(H_3_O)^+^_0.10_)
Cell parameters: a: 6.9654(7) b: 6.9654(7) c: 8.416(1) alpha: 90 beta: 90 gamma: 90 volume: 408.33(8) crystal system: tetragonal
x	intensity
5	0
5.22	9.96156
5.44	5.75158
5.66	3.62095
5.88	7.89381
6.1	16.2194
6.32	7.91183
6.54	8.65587
6.76	0.968445
6.98	10.0966
7.2	4.77148
7.42	7.61191
7.64	7.16564
7.86	11.2793
8.08	3.37389
8.3	9.42668
8.52	2.25476
8.74	1.32614
8.96	0.740225
9.18	3.43029
9.4	13.3789
9.62	16.5979
9.84	12.8064
10.06	13.1282
10.28	25.1286
10.5	104.339
10.72	27.6411
10.94	4.14315
11.16	5.91712
11.38	0.185305
11.6	11.0821
11.82	1.2683
12.04	4.62097
12.26	9.63174
12.48	7.58383
12.7	9.01416
12.92	3.23702
13.14	0.619059
13.36	7.50152
13.58	1.30579
13.8	5.42904
14.02	6.64984
14.24	4.71981
14.46	16.3611
14.68	10.9781
14.9	9.73244
15.12	13.9796
15.34	5.17786
15.56	5.29608
15.78	11.9171
16	1.16869
16.22	1.35078
16.44	19.3774
16.66	35.9619
16.88	9.8072
17.1	2.88736
17.32	2.76245
17.54	5.33331
17.76	7.53006
17.98	30.8132
18.2	20.9495
18.42	17.2462
18.64	12.7927
18.86	14.3637
19.08	12.4085
19.3	9.69451
19.52	3.63942
19.74	6.68263
19.96	0.576309
20.18	2.68423
20.4	19.5679
20.62	4.26778
20.84	23.784
21.06	11.6388
21.28	17.434
21.5	0.699789
21.72	15.1008
21.94	3.04797
22.16	10.7807
22.38	14.5728
22.6	0.179981
22.82	15.2415
23.04	7.42578
23.26	12.2669
23.48	10.6259
23.7	11.0988
23.92	2.25625
24.14	14.0854
24.36	9.18717
24.58	27.2383
24.8	31.5887
25.02	9.41209
25.24	9.12066
25.46	39.6686
25.68	10.6759
25.9	1.25765
26.12	9.22712
26.34	1.73411
26.56	10.2399
26.78	9.32085
27	11.7416
27.22	15.858
27.44	9.75942
27.66	25.8771
27.88	3.23814
28.1	13.0348
28.32	12.8505
28.54	11.9016
28.76	11.1376
28.98	18.6218
29.2	1.09267
29.42	1.85698
29.64	11.1098
29.86	2.58024
30.08	16.5486
30.3	1.69402
30.52	27.272
30.74	14.7324
30.96	14.462
31.18	3.74532
31.4	15.6065
31.62	3.23443
31.84	3.84556
32.06	20.445
32.28	3.81671
32.5	11.1984
32.72	7.64298
32.94	12.6126
33.16	9.05849
33.38	14.1115
33.6	8.2526
33.82	0.676716
34.04	6.95593
34.26	8.36023
34.48	11.6124
34.7	8.91224
34.92	8.4508
35.14	9.72735
35.36	6.92355
35.58	11.1392
35.8	19.247
36.02	4.58183
36.24	5.80957
36.46	12.9858
36.68	0.047428
36.9	12.201
37.12	2.39628
37.34	2.64601
37.56	8.91289
37.78	11.5054
38	9.56613
38.22	9.55333
38.44	9.60646
38.66	16.2563
38.88	3.25957
39.1	8.26167
39.32	15.1891
39.54	4.94109
39.76	2.60402
39.98	2.08973
40.2	13.578
40.42	10.0849
40.64	13.6672
40.86	8.00868
41.08	12.2695
41.3	12.4754
41.52	5.86616
41.74	8.23842
41.96	6.80613
42.18	9.34854
42.4	9.67165
42.62	4.40664
42.84	0.371685
43.06	2.003
43.28	0.049412
43.5	10.2964
43.72	0.853247
43.94	8.22777
44.16	5.58156
44.38	11.3889
44.6	7.82641
44.82	5.35343
45.04	10.0837
45.26	14.9326
45.48	12.9478
45.7	2.19369
45.92	7.30952
46.14	11.3479
46.36	12.2088
46.58	3.20239
46.8	0.956423
47.02	7.96524
47.24	1.81706
47.46	3.61114
47.68	5.60262
47.9	1.59827
48.12	11.7486
48.34	1.11546
48.56	2.56804
48.78	0.993107
49	11.017
49.22	2.58685
49.44	17.0933
49.66	2.70928
49.88	4.33782
50.1	4.50861
50.32	9.64809
50.54	9.73943
50.76	10.7917
50.98	8.44111
51.2	8.98706
51.42	8.86743
51.64	19.4341
51.86	8.16703
52.08	10.0532
52.3	10.2913
52.52	9.33274
52.74	13.2912
52.96	0.624657
53.18	2.4898
53.4	3.67283
53.62	11.356
53.84	16.9406
54.06	0.696054
54.28	4.68486
54.5	12.0968
54.72	6.13456
54.94	3.20398
55.16	7.29063
55.38	6.43337
55.6	3.68151
55.82	13.1364
56.04	16.8764
56.26	15.5691
56.48	11.6465
56.7	8.35162
56.92	4.18216
57.14	3.11479
57.36	6.22643
57.58	6.38766
57.8	10.2273
58.02	9.06214
58.24	3.22355
58.46	8.81722
58.68	8.8732
58.9	2.48082
59.12	11.7202
59.34	11.7983
59.56	4.04572
59.78	7.14581
60	17.4694
60.22	8.76772
60.44	7.08793
60.66	8.18755
60.88	9.17878
61.1	3.41554
61.32	4.57766
61.54	10.9878
61.76	9.28936
61.98	3.80415
62.2	8.02212
62.42	1.03101
62.64	5.173
62.86	4.17957
63.08	5.55465
63.3	2.49801
63.52	11.7493
63.74	6.16025
63.96	7.16707
64.18	0.649986
64.4	4.57248
64.62	12.8074
64.84	9.02803
65.06	4.28108
65.28	6.83794
65.5	3.03366
65.72	8.21936
65.94	15.2968
66.16	8.03853
66.38	1.0669
66.6	2.25271
66.82	5.58196
67.04	1.39991
67.26	1.8009
67.48	5.66325
67.7	1.26833
67.92	7.90548
68.14	5.57337
68.36	8.79118
68.58	2.56465
68.8	2.35284
69.02	1.35112
69.24	5.12354
69.46	5.80442
69.68	7.96632
69.9	9.03258
70.12	1.97858
70.34	5.10821
70.56	1.98054
70.78	11.0253
71	9.19847
71.22	5.3902
71.44	7.50132
71.66	14.4799
71.88	3.08806
72.1	0.431845
72.32	2.78368
72.54	11.0518
72.76	2.10738
72.98	1.26437
73.2	16.2354
73.42	7.34339
73.64	5.32911
73.86	9.44955
74.08	7.57543
74.3	6.90076
74.52	1.31669
74.74	3.97407
74.96	3.14602
75.18	1.91542
75.4	9.8512
75.62	3.63605
75.84	1.7208
76.06	4.74069
76.28	2.73571
76.5	5.60157
76.72	5.40613
76.94	2.52813
77.16	6.6024
77.38	2.56701
77.6	4.90972
77.82	7.05314
78.04	2.18371
78.26	7.35235
78.48	5.75853
78.7	3.80307
78.92	7.90164
79.14	7.80998
79.36	4.89894
79.58	4.07729
79.8	13.2521
80.02	2.08146
80.24	2.07267
80.46	8.37527
80.68	9.18824
80.9	0.861574
81.12	0.954779
81.34	4.12072
81.56	2.7511
81.78	9.34876
82	7.2934
82.22	3.30919
82.44	2.37616
82.66	1.63743
82.88	4.16774
83.1	11.2169
83.32	2.13691
83.54	6.86711
83.76	9.9748
83.98	14.847
84.2	5.7968
84.42	3.82609
84.64	4.88687
84.86	1.87556
85.08	4.11444
85.3	7.16493
85.52	4.43144
85.74	2.76591
85.96	3.83395
86.18	2.82558
86.4	4.87387
86.62	10.8522
86.84	4.88325
87.06	0.601714
87.28	9.70482
87.5	2.44565
87.72	5.46357
87.94	12.329
88.16	10.2376
88.38	6.35904
88.6	3.32151
88.82	1.42452
89.04	9.5364
89.26	6.61
89.48	8.95872
89.7	5.62201
89.92	5.67657
