Measurement: Powder, Xray Data XY Processed
Mineral: Meyerhofferite
Rruff sample: R050671
Ideal chemistry: CaB_3_O_3_(OH)_5_H_2_O
Locality: Inyo County, California, USA
Source: University of Arizona Mineral Museum
Description: Colorless prismatic single crystals
Diffraction sample description: Powder
Measured chemistry: Ca_1.00_B_3_O_3_(OH)_5_Â·H_2_O ; B not measured but estimated by charge balance
Cell parameters: a: 6.6395(4) b: 8.3498(6) c: 6.471(1) alpha: 90.83(2) beta: 101.87(1) gamma: 86.762(5) volume: 350.54(6) crystal system: triclinic
x	intensity
5	0
5.22	7.7407
5.44	9.03338
5.66	7.29934
5.88	3.41874
6.1	0.959919
6.32	8.74862
6.54	10.0528
6.76	7.19222
6.98	10.3604
7.2	11.1588
7.42	5.96528
7.64	13.9282
7.86	11.5957
8.08	3.79779
8.3	9.90846
8.52	23.762
8.74	3.35569
8.96	10.1948
9.18	1.18479
9.4	4.1302
9.62	10.9921
9.84	1.82505
10.06	4.19183
10.28	11.8665
10.5	156.748
10.72	72.5024
10.94	14.82
11.16	14.1554
11.38	14.2278
11.6	2.8494
11.82	3.80689
12.04	0.825115
12.26	9.2667
12.48	26.1948
12.7	15.6496
12.92	1.14916
13.14	12.2451
13.36	34.6658
13.58	269.339
13.8	45.7433
14.02	20.947
14.24	26.2033
14.46	14.3087
14.68	8.936
14.9	5.55089
15.12	1.10732
15.34	19.8364
15.56	12.5544
15.78	28.4383
16	30.5589
16.22	11.2356
16.44	4.59898
16.66	6.55634
16.88	24.325
17.1	22.3024
17.32	16.5785
17.54	60.3259
17.76	346.445
17.98	21.3865
18.2	23.1327
18.42	16.2986
18.64	16.1485
18.86	2.55955
19.08	20.9587
19.3	20.9866
19.52	5.32598
19.74	8.0884
19.96	15.9783
20.18	14.4258
20.4	8.87085
20.62	22.0814
20.84	18.091
21.06	6.82885
21.28	141.472
21.5	12.4225
21.72	6.04275
21.94	15.5808
22.16	25.8102
22.38	0.087074
22.6	6.95304
22.82	11.5786
23.04	13.8614
23.26	9.88505
23.48	7.82458
23.7	29.4352
23.92	19.8702
24.14	10.2345
24.36	59.3256
24.58	12.7931
24.8	51.6566
25.02	8.02038
25.24	3.35542
25.46	19.2486
25.68	13.7639
25.9	7.08675
26.12	4.25802
26.34	16.8005
26.56	1.46157
26.78	13.383
27	65.8443
27.22	8.77852
27.44	32.1907
27.66	30.8753
27.88	4.33962
28.1	67.0064
28.32	114.975
28.54	11.9585
28.76	14.1892
28.98	198.812
29.2	13.0812
29.42	1.90389
29.64	22.9436
29.86	11.4139
30.08	60.763
30.3	16.4017
30.52	0.03796
30.74	0.600418
30.96	40.5789
31.18	5.11984
31.4	6.04464
31.62	8.38752
31.84	5.57767
32.06	9.46888
32.28	33.004
32.5	13.1921
32.72	14.3337
32.94	4.72047
33.16	6.65516
33.38	8.7684
33.6	16.8742
33.82	25.5133
34.04	37.8411
34.26	5.71361
34.48	7.64825
34.7	4.76777
34.92	19.4518
35.14	24.24
35.36	39.3596
35.58	29.2748
35.8	111.659
36.02	19.4805
36.24	8.27893
36.46	13.8148
36.68	13.5191
36.9	13.0858
37.12	29.6092
37.34	9.06951
37.56	1.27053
37.78	10.7444
38	18.2419
38.22	0.376038
38.44	4.93973
38.66	9.95341
38.88	1.00987
39.1	10.8353
39.32	3.67683
39.54	6.52454
39.76	11.9988
39.98	17.2056
40.2	8.76558
40.42	9.27
40.64	1.81961
40.86	3.1313
41.08	16.4763
41.3	16.152
41.52	12.2068
41.74	31.7974
41.96	11.8236
42.18	27.2074
42.4	5.78563
42.62	12.6519
42.84	13.0255
43.06	13.7335
43.28	21.8696
43.5	58.4204
43.72	8.3672
43.94	42.8427
44.16	9.73359
44.38	25.0304
44.6	7.83179
44.82	7.76799
45.04	21.6742
45.26	8.59815
45.48	3.60714
45.7	11.1067
45.92	11.4236
46.14	14.9946
46.36	22.1866
46.58	29.3856
46.8	4.43307
47.02	22.7367
47.24	13.2295
47.46	7.72593
47.68	2.2934
47.9	21.8377
48.12	28.5354
48.34	12.3884
48.56	15.1937
48.78	1.46193
49	9.24835
49.22	11.2197
49.44	13.8687
49.66	19.9137
49.88	7.53219
50.1	8.56222
50.32	2.33377
50.54	5.35323
50.76	3.37046
50.98	7.69346
51.2	10.6348
51.42	13.5265
51.64	26.3664
51.86	8.18261
52.08	15.9357
52.3	6.21524
52.52	8.18598
52.74	4.90441
52.96	0.474821
53.18	1.39063
53.4	18.7497
53.62	8.82942
53.84	7.07373
54.06	11.22
54.28	11.5856
54.5	13.5588
54.72	13.089
54.94	4.7899
55.16	0.189402
55.38	8.43629
55.6	19.7089
55.82	7.81199
56.04	17.2054
56.26	7.97368
56.48	1.00863
56.7	2.17918
56.92	9.54278
57.14	12.0206
57.36	22.5218
57.58	13.6699
57.8	11.004
58.02	14.4012
58.24	9.78376
58.46	15.85
58.68	15.3175
58.9	4.72079
59.12	14.2332
59.34	12.1964
59.56	10.4233
59.78	6.67058
60	14.8732
60.22	8.94239
60.44	8.78399
60.66	13.035
60.88	5.16708
61.1	6.32311
61.32	5.4429
61.54	4.28978
61.76	4.51458
61.98	1.59483
62.2	11.8833
62.42	8.11372
62.64	6.26123
62.86	5.00602
63.08	8.84742
63.3	8.09526
63.52	0.738962
63.74	5.27987
63.96	4.58923
64.18	4.97765
64.4	7.97293
64.62	10.9267
64.84	8.84269
65.06	11.7508
65.28	4.81747
65.5	1.94566
65.72	8.90993
65.94	11.3132
66.16	9.12178
66.38	0.151188
66.6	5.8599
66.82	10.6873
67.04	4.04647
67.26	7.15183
67.48	6.32344
67.7	8.46776
67.92	2.34981
68.14	1.48415
68.36	14.2922
68.58	12.47
68.8	8.50741
69.02	2.48539
69.24	6.76245
69.46	14.7246
69.68	4.81892
69.9	0.028041
70.12	4.11455
70.34	4.47067
70.56	1.17831
70.78	1.06789
71	11.0313
71.22	10.2223
71.44	3.40537
71.66	13.4015
71.88	10.5731
72.1	4.4511
72.32	9.67956
72.54	7.85626
72.76	9.60695
72.98	11.2643
73.2	6.985
73.42	7.9659
73.64	5.89334
73.86	6.78822
74.08	8.68267
74.3	17.3442
74.52	11.2799
74.74	11.0189
74.96	2.8998
75.18	13.7003
75.4	3.82772
75.62	7.75004
75.84	4.11705
76.06	9.03078
76.28	16.0569
76.5	8.12192
76.72	7.62549
76.94	4.56202
77.16	1.95525
77.38	12.3568
77.6	11.4688
77.82	1.74322
78.04	12.0735
78.26	6.97557
78.48	8.03132
78.7	3.14773
78.92	9.24229
79.14	4.19196
79.36	2.90454
79.58	10.5347
79.8	6.58903
80.02	7.49399
80.24	0.342165
80.46	8.10853
80.68	2.21773
80.9	3.20356
81.12	4.2617
81.34	3.42965
81.56	10.2981
81.78	2.28734
82	2.64287
82.22	9.61582
82.44	8.59352
82.66	7.54905
82.88	7.72097
83.1	12.3323
83.32	6.17221
83.54	7.92748
83.76	12.5398
83.98	9.45036
84.2	3.07914
84.42	7.47076
84.64	2.37491
84.86	7.52514
85.08	13.6189
85.3	7.92534
85.52	14.0744
85.74	3.50283
85.96	0.334675
86.18	0.869189
86.4	0.047046
86.62	6.59313
86.84	2.45403
87.06	4.50597
87.28	0.546076
87.5	0.485391
87.72	16.0356
87.94	3.03401
88.16	3.00569
88.38	8.00882
88.6	2.03096
88.82	1.66555
89.04	11.5304
89.26	0.722458
89.48	9.04268
89.7	4.71729
89.92	3.9638
