Measurement: Powder, Xray Data XY Processed
Mineral: Microcline
Rruff sample: R050054
Ideal chemistry: KAlSi_3_O_8_
Locality: Kenticha, Negele area, Sidamo Province, Ethiopia
Source: Rock Currier
Description: Light blue single crystal
Diffraction sample description: Powder
Measured chemistry: (K_0.96_Na_0.04_)Al_1.00_Si_3.00_O_8_
Cell parameters: a: 8.578(2) b: 12.957(2) c: 7.218(2) alpha: 90.72(2) beta: 115.94(1) gamma: 87.74(2) volume: 720.8(1) crystal system: triclinic
x	intensity
5	0
5.22	5.183
5.44	12.756
5.66	4.467
5.88	20.849
6.1	8.448
6.32	27.61
6.54	6.452
6.76	3.259
6.98	0.958
7.2	2.246
7.42	2.262
7.64	6.086
7.86	5.377
8.08	8.059
8.3	1.809
8.52	2.324
8.74	5.184
8.96	3.303
9.18	7.545
9.4	0.861
9.62	6.801
9.84	4.936
10.06	9.058
10.28	5.911
10.5	3.3
10.72	8.379
10.94	7.429
11.16	2.361
11.38	4.59
11.6	2.354
11.82	0.485
12.04	13.163
12.26	6.998
12.48	1.268
12.7	11.397
12.92	10.89
13.14	13.676
13.36	10.983
13.58	11.881
13.8	8.733
14.02	0.342
14.24	0.647
14.46	0.864
14.68	0.125
14.9	1.276
15.12	4.604
15.34	2.953
15.56	5.279
15.78	4.102
16	3.372
16.22	4.463
16.44	3.641
16.66	1.814
16.88	2.905
17.1	1.071
17.32	1.178
17.54	3.311
17.76	3.262
17.98	5.16
18.2	5.065
18.42	3.011
18.64	0.706
18.86	2.324
19.08	11.146
19.3	16.151
19.52	5.363
19.74	7.161
19.96	2.777
20.18	1.593
20.4	5.733
20.62	5.023
20.84	8.977
21.06	178.186
21.28	10.534
21.5	2.28
21.72	3.137
21.94	1.429
22.16	25.171
22.38	72.91
22.6	20.614
22.82	2.329
23.04	11.222
23.26	63.82
23.48	32.024
23.7	14.422
23.92	29.545
24.14	16.11
24.36	86.299
24.58	13.566
24.8	32.156
25.02	9.969
25.24	2.581
25.46	13.676
25.68	148.704
25.9	1.706
26.12	0.593
26.34	22.815
26.56	45.909
26.78	12.704
27	25.715
27.22	74.318
27.44	219.069
27.66	137.119
27.88	19.711
28.1	10.777
28.32	8.467
28.54	0.213
28.76	0.077
28.98	6.418
29.2	1.731
29.42	17.007
29.64	34.286
29.86	27.799
30.08	24.993
30.3	70.844
30.52	22.243
30.74	46.995
30.96	67.553
31.18	11.208
31.4	5.999
31.62	10.081
31.84	0.001
32.06	7.129
32.28	23.978
32.5	35.684
32.72	10.433
32.94	1.058
33.16	5.552
33.38	6.151
33.6	9.664
33.82	6.083
34.04	13.275
34.26	32.67
34.48	17.895
34.7	21.333
34.92	42.82
35.14	43.79
35.36	21.606
35.58	27.188
35.8	8.614
36.02	8.143
36.24	2.727
36.46	13.239
36.68	0.63
36.9	17.134
37.12	22.622
37.34	10.88
37.56	9.883
37.78	9.491
38	3.565
38.22	1.127
38.44	3.416
38.66	18.657
38.88	7.024
39.1	10.071
39.32	2.169
39.54	1.092
39.76	2.089
39.98	2.882
40.2	0.066
40.42	9.67
40.64	5.049
40.86	6.405
41.08	0.168
41.3	5.706
41.52	1.302
41.74	30.83
41.96	83.656
42.18	6.622
42.4	3.325
42.62	4.157
42.84	19.245
43.06	4.334
43.28	6.437
43.5	4.369
43.72	6.665
43.94	7.218
44.16	0.951
44.38	6.885
44.6	0.848
44.82	0.96
45.04	5.164
45.26	2.049
45.48	18.099
45.7	33.481
45.92	11.368
46.14	6.887
46.36	19.093
46.58	1.185
46.8	5.058
47.02	3.891
47.24	25.834
47.46	4.462
47.68	9.448
47.9	5.019
48.12	5.749
48.34	1.006
48.56	3.18
48.78	17.049
49	25.794
49.22	19.239
49.44	4.094
49.66	5.849
49.88	7.98
50.1	5.88
50.32	7.939
50.54	73.319
50.76	46.272
50.98	24.439
51.2	17.993
51.42	3.723
51.64	3.145
51.86	9.535
52.08	5.963
52.3	6.35
52.52	8.818
52.74	8.331
52.96	6.157
53.18	3.22
53.4	8.337
53.62	5.106
53.84	4.064
54.06	6.257
54.28	7.29
54.5	3.316
54.72	0.615
54.94	7.249
55.16	4.264
55.38	9.421
55.6	16.508
55.82	0.763
56.04	6.145
56.26	0.043
56.48	2.283
56.7	8.499
56.92	12.792
57.14	5.515
57.36	8.25
57.58	4.789
57.8	1.332
58.02	4.219
58.24	4.129
58.46	3.264
58.68	24.22
58.9	14.309
59.12	0.547
59.34	1.658
59.56	10.746
59.78	1.889
60	5.978
60.22	1.074
60.44	8.976
60.66	20.17
60.88	12.982
61.1	3.103
61.32	9.424
61.54	2.119
61.76	2.537
61.98	2.347
62.2	3.072
62.42	11.859
62.64	6.631
62.86	3.433
63.08	12.085
63.3	7.848
63.52	0.002
63.74	8.932
63.96	28.956
64.18	17.012
64.4	16.146
64.62	0.587
64.84	4.901
65.06	8.144
65.28	19.292
65.5	6.444
65.72	5.54
65.94	0.011
66.16	1.957
66.38	12.461
66.6	1.484
66.82	1.515
67.04	0.757
67.26	7.21
67.48	12.208
67.7	3.462
67.92	4.712
68.14	13.961
68.36	6.202
68.58	1.458
68.8	6.325
69.02	2.531
69.24	3.629
69.46	2.875
69.68	3.848
69.9	11.884
70.12	1.892
70.34	8.848
70.56	6.492
70.78	4.937
71	2.541
71.22	2.074
71.44	6.671
71.66	6.548
71.88	2.067
72.1	2.749
72.32	17.454
72.54	4.23
72.76	1.012
72.98	12.206
73.2	10.727
73.42	3.041
73.64	17.119
73.86	6.274
74.08	3.239
74.3	2.444
74.52	6.646
74.74	11.85
74.96	17.145
75.18	13.357
75.4	15.688
75.62	11.738
75.84	7.066
76.06	3.541
76.28	0.938
76.5	1.374
76.72	1.806
76.94	7.374
77.16	0.667
77.38	8.093
77.6	1.26
77.82	2.968
78.04	1.887
78.26	8.551
78.48	8.253
78.7	3.952
78.92	4.582
79.14	9.098
79.36	0.82
79.58	4.554
79.8	3.979
80.02	6.882
80.24	9.099
80.46	11.091
80.68	3.214
80.9	6.558
81.12	1.881
81.34	8.196
81.56	0.361
81.78	4.577
82	0.101
82.22	4.056
82.44	0.151
82.66	5.004
82.88	3.019
83.1	4.001
83.32	8.774
83.54	3.699
83.76	4.58
83.98	9.444
84.2	13.607
84.42	4.512
84.64	1.235
84.86	3.87
85.08	5.008
85.3	2.238
85.52	0.488
85.74	6.668
85.96	3.837
86.18	10.001
86.4	1.108
86.62	1.026
86.84	4.819
87.06	6.917
87.28	2.919
87.5	8.163
87.72	9.147
87.94	3.218
88.16	5.365
88.38	11.31
88.6	4.257
88.82	8.28
89.04	4.493
89.26	6.456
89.48	1.243
89.7	5.454
89.92	4.489
