Measurement: Powder, Xray Data XY Processed
Mineral: Microcline
Rruff sample: R050150
Ideal chemistry: KAlSi_3_O_8_
Locality: Crystal Peak area, Park/Teller Counties, Colorado, USA
Source: Dave Bunk Minerals
Description: Pale blue prismatic crystals
Diffraction sample description: Powder
Measured chemistry: (K_0.95_Na_0.05_)_Î£=1_Al_1.00_Si_3.00_O_8_
Cell parameters: a: 8.5680(9) b: 12.9556(8) c: 7.2176(3) alpha: 90.79(2) beta: 115.94(1) gamma: 87.63(2) volume: 719.81(7) crystal system: triclinic
x	intensity
5	0
5.22	4.984
5.44	7.948
5.66	15.284
5.88	10.733
6.1	3.322
6.32	11.02
6.54	1.163
6.76	8.02
6.98	8.795
7.2	10.722
7.42	6.749
7.64	10.808
7.86	2.424
8.08	4.22
8.3	9.872
8.52	12.514
8.74	5.534
8.96	1.855
9.18	4.977
9.4	0.617
9.62	8.726
9.84	5.547
10.06	8.475
10.28	10.675
10.5	6.835
10.72	5.232
10.94	6.23
11.16	4.522
11.38	5.496
11.6	12.296
11.82	5.277
12.04	9.225
12.26	4.133
12.48	3.041
12.7	9.897
12.92	9.614
13.14	8.798
13.36	6.494
13.58	10.481
13.8	13.502
14.02	5.283
14.24	5.251
14.46	2.786
14.68	6.181
14.9	17.44
15.12	15.71
15.34	9.653
15.56	7.56
15.78	6.773
16	6.899
16.22	12.157
16.44	3.323
16.66	5.702
16.88	9.507
17.1	10.502
17.32	7.679
17.54	8.56
17.76	5.569
17.98	11.498
18.2	5.409
18.42	4.423
18.64	9.296
18.86	5.384
19.08	6.25
19.3	18.147
19.52	7.84
19.74	1.557
19.96	0.275
20.18	4.983
20.4	2.893
20.62	9.042
20.84	6.872
21.06	184.983
21.28	17.72
21.5	5.559
21.72	3.284
21.94	8.152
22.16	18.486
22.38	41.847
22.6	15.273
22.82	0.682
23.04	9.764
23.26	69.285
23.48	17.509
23.7	22.974
23.92	10.397
24.14	32.345
24.36	34.383
24.58	17.735
24.8	34.532
25.02	14.191
25.24	5.404
25.46	20.292
25.68	146.115
25.9	10.917
26.12	2.4
26.34	17.02
26.56	60.162
26.78	23.089
27	39.236
27.22	84.113
27.44	232.492
27.66	119.31
27.88	22.86
28.1	21.813
28.32	0.778
28.54	1.809
28.76	2.328
28.98	1.889
29.2	2.391
29.42	26.671
29.64	23.939
29.86	29.009
30.08	19.879
30.3	61.352
30.52	36.304
30.74	29.973
30.96	53.221
31.18	5.984
31.4	0.02
31.62	1.028
31.84	0.138
32.06	12.187
32.28	21.078
32.5	28.83
32.72	2.991
32.94	0.492
33.16	2.836
33.38	0.902
33.6	3.578
33.82	0.085
34.04	0.765
34.26	36.593
34.48	7.559
34.7	25.847
34.92	28.107
35.14	26.996
35.36	16.909
35.58	24.416
35.8	8.747
36.02	7.234
36.24	1.146
36.46	0.543
36.68	7.965
36.9	16.662
37.12	24.683
37.34	16.172
37.56	5.185
37.78	5.802
38	6.02
38.22	4.344
38.44	6.704
38.66	29.998
38.88	8.418
39.1	8.566
39.32	7.584
39.54	4.235
39.76	9.47
39.98	3.406
40.2	3.085
40.42	12.671
40.64	6.249
40.86	3.692
41.08	0.121
41.3	6.547
41.52	7.901
41.74	22.465
41.96	74.649
42.18	15.085
42.4	1.845
42.62	6.772
42.84	12.038
43.06	13.251
43.28	3.564
43.5	12.8
43.72	7.044
43.94	0.977
44.16	12.705
44.38	6.284
44.6	11.446
44.82	7.573
45.04	6.552
45.26	8.319
45.48	8.276
45.7	20.142
45.92	27.123
46.14	8.869
46.36	15.1
46.58	1.564
46.8	5.176
47.02	5.066
47.24	14.274
47.46	18.477
47.68	10.497
47.9	0.356
48.12	1.054
48.34	10.977
48.56	5.31
48.78	8.297
49	16.914
49.22	20.466
49.44	10.414
49.66	0.027
49.88	9.839
50.1	7.915
50.32	6.246
50.54	68.652
50.76	36.098
50.98	18.377
51.2	17.115
51.42	0.497
51.64	9.636
51.86	2.062
52.08	8.269
52.3	7.623
52.52	12.747
52.74	11.552
52.96	7.659
53.18	4.487
53.4	11.059
53.62	2.133
53.84	4.282
54.06	7.332
54.28	10.401
54.5	1.331
54.72	1.73
54.94	9.3
55.16	4.339
55.38	11.346
55.6	14.293
55.82	6.811
56.04	8.496
56.26	2.77
56.48	1.133
56.7	4.978
56.92	9.831
57.14	10.861
57.36	7.712
57.58	15.463
57.8	3.347
58.02	0.542
58.24	4.645
58.46	3.757
58.68	11.133
58.9	3.265
59.12	5.57
59.34	5.037
59.56	5.978
59.78	4.132
60	0.722
60.22	1.416
60.44	13.285
60.66	8.564
60.88	8.743
61.1	4.887
61.32	14.003
61.54	6.558
61.76	7.089
61.98	1.206
62.2	5.513
62.42	3.452
62.64	7.164
62.86	6.929
63.08	11.342
63.3	8.011
63.52	15.022
63.74	13.087
63.96	22.1
64.18	9.161
64.4	7.283
64.62	5.815
64.84	8.052
65.06	14.118
65.28	16.204
65.5	15.328
65.72	8.402
65.94	2.446
66.16	1.69
66.38	13.76
66.6	10.273
66.82	4.342
67.04	5.866
67.26	13.875
67.48	0.764
67.7	4.562
67.92	0.73
68.14	5.259
68.36	13.567
68.58	10.691
68.8	16.065
69.02	2.879
69.24	3.035
69.46	4.084
69.68	14.183
69.9	7.165
70.12	0.776
70.34	9.154
70.56	6.56
70.78	0.798
71	12.758
71.22	0.163
71.44	1.795
71.66	6.4
71.88	13.361
72.1	0.01
72.32	7.497
72.54	2.286
72.76	5.141
72.98	4.566
73.2	4.613
73.42	5.632
73.64	2.726
73.86	3.782
74.08	0.94
74.3	3.82
74.52	0.196
74.74	9.624
74.96	3.716
75.18	9.76
75.4	13.928
75.62	2.336
75.84	1.772
76.06	2.464
76.28	2.82
76.5	7.223
76.72	2.888
76.94	7.887
77.16	0.915
77.38	11.365
77.6	1.823
77.82	1.816
78.04	7.682
78.26	7.632
78.48	9.522
78.7	6.407
78.92	12.945
79.14	8.783
79.36	2.698
79.58	7.56
79.8	9.385
80.02	8.132
80.24	4.256
80.46	15.283
80.68	6.197
80.9	9.558
81.12	4.713
81.34	4.93
81.56	3.104
81.78	3.273
82	1.573
82.22	7.898
82.44	4.956
82.66	0.025
82.88	3.028
83.1	6.836
83.32	4.49
83.54	4.409
83.76	5.264
83.98	3.111
84.2	1.908
84.42	2.836
84.64	11.61
84.86	4.697
85.08	3.642
85.3	0.733
85.52	2.931
85.74	4.052
85.96	3.223
86.18	5.493
86.4	1.691
86.62	1.819
86.84	3.822
87.06	6.814
87.28	2.911
87.5	3.966
87.72	6.093
87.94	7.281
88.16	4.322
88.38	7.452
88.6	11.415
88.82	5.529
89.04	2.73
89.26	2.79
89.48	7.917
89.7	6.388
89.92	4.466
