Measurement: Powder, Xray Data XY Processed
Mineral: Milarite
Rruff sample: R070464
Ideal chemistry: KCa_2_(Be_2_AlSi_12_O_30_)H_2_O
Locality: Rössing Mine, Arandis, Swakopmund District, Namibia
Source: Michael Scott
Description: Fragments from a pale yellow green hexagonal prism
Diffraction sample description: Powder
Measured chemistry: (K_1.11_Na_0.21_)_Σ=1.32_Ca_2.00_(Be_2.36_Al_0.64_)_Σ=3_Si_12.00_O_30_·H_2_O; H_2_O assumed ideal from stoichiometry; BeO estimated by difference
Cell parameters: a: 10.3995(2) b: 10.3995(2) c: 13.7839(7) alpha: 90 beta: 90 gamma: 120 volume: 1291.00(6) crystal system: hexagonal
x	intensity
5	0
5.22	16.0507
5.44	2.53849
5.66	2.98579
5.88	3.92267
6.1	3.14298
6.32	13.6778
6.54	11.1258
6.76	16.7263
6.98	7.1444
7.2	12.0969
7.42	10.6722
7.64	5.43553
7.86	16.1822
8.08	19.8011
8.3	8.21489
8.52	5.57934
8.74	4.86181
8.96	20.4495
9.18	0.834779
9.4	7.60694
9.62	10.9395
9.84	50.275
10.06	2.21156
10.28	4.11292
10.5	1.15969
10.72	9.30434
10.94	4.83104
11.16	0.037368
11.38	8.10876
11.6	9.27045
11.82	9.29262
12.04	4.20631
12.26	4.00692
12.48	6.99274
12.7	22.4487
12.92	118.737
13.14	2.72207
13.36	2.43023
13.58	6.45225
13.8	0.367157
14.02	2.9069
14.24	10.991
14.46	4.00965
14.68	4.17524
14.9	8.22411
15.12	8.66568
15.34	3.53091
15.56	7.43343
15.78	6.2407
16	2.0251
16.22	95.1211
16.44	4.86967
16.66	4.71534
16.88	9.88791
17.1	372.616
17.32	7.50781
17.54	0.811627
17.76	3.82584
17.98	9.10203
18.2	3.07307
18.42	8.09674
18.64	5.06974
18.86	5.91035
19.08	0.171133
19.3	10.538
19.52	13.4113
19.74	273.583
19.96	12.3484
20.18	2.86547
20.4	6.63221
20.62	5.95957
20.84	10.3054
21.06	5.37568
21.28	24.7654
21.5	145.051
21.72	6.01068
21.94	1.2295
22.16	9.93895
22.38	12.7465
22.6	3.22987
22.82	2.77329
23.04	7.70662
23.26	7.35404
23.48	9.46047
23.7	60.1117
23.92	16.0109
24.14	4.07603
24.36	18.9601
24.58	7.85737
24.8	6.64627
25.02	3.27328
25.24	0.614987
25.46	5.14002
25.68	10.5864
25.9	147.512
26.12	2.25015
26.34	6.24749
26.56	2.08009
26.78	11.6645
27	908.372
27.22	16.5314
27.44	1.73582
27.66	44.3472
27.88	22.0083
28.1	13.5442
28.32	0.073257
28.54	7.13121
28.76	2.05014
28.98	4.5771
29.2	12.5534
29.42	8.59109
29.64	16.4082
29.86	123.903
30.08	6.61195
30.3	3.69537
30.52	3.29441
30.74	9.5628
30.96	20.4701
31.18	419.692
31.4	8.55287
31.62	11.6357
31.84	0.285946
32.06	8.0972
32.28	7.47938
32.5	9.83504
32.72	420.396
32.94	29.7393
33.16	1.65534
33.38	7.87205
33.6	0.149388
33.82	13.2373
34.04	2.58672
34.26	4.89161
34.48	79.185
34.7	11.5587
34.92	5.50011
35.14	15.353
35.36	0.141559
35.58	11.0137
35.8	8.19976
36.02	42.2397
36.24	8.82789
36.46	17.9749
36.68	32.945
36.9	23.4281
37.12	5.64817
37.34	3.07965
37.56	10.2364
37.78	7.69339
38	4.33878
38.22	1.4138
38.44	4.817
38.66	14.3938
38.88	1.41421
39.1	11.5373
39.32	2.71582
39.54	3.42376
39.76	11.4733
39.98	7.34645
40.2	10.9337
40.42	10.3665
40.64	1.08371
40.86	4.65095
41.08	23.2504
41.3	9.14744
41.52	11.7285
41.74	4.27106
41.96	6.08242
42.18	12.5045
42.4	4.27407
42.62	6.13388
42.84	6.07176
43.06	10.9653
43.28	4.71497
43.5	15.7493
43.72	10.5535
43.94	1.22455
44.16	5.90712
44.38	14.2285
44.6	2.76102
44.82	77.926
45.04	6.18218
45.26	0.6286
45.48	0.286862
45.7	5.06824
45.92	10.5005
46.14	38.2681
46.36	10.7074
46.58	17.1806
46.8	34.2155
47.02	7.99304
47.24	5.09249
47.46	9.30795
47.68	15.6991
47.9	15.4943
48.12	106.102
48.34	16.7903
48.56	6.31449
48.78	6.04853
49	4.49146
49.22	96.5051
49.44	9.40951
49.66	0.443667
49.88	13.1311
50.1	20.3568
50.32	3.60746
50.54	9.17946
50.76	32.2521
50.98	2.28964
51.2	4.89419
51.42	1.25517
51.64	0.636785
51.86	12.3619
52.08	9.17282
52.3	2.96584
52.52	3.37128
52.74	10.9945
52.96	9.97481
53.18	73.1916
53.4	16.8064
53.62	18.5083
53.84	27.4828
54.06	6.84054
54.28	71.4043
54.5	8.6431
54.72	14.8496
54.94	3.37332
55.16	2.19379
55.38	3.06973
55.6	0.483085
55.82	8.17202
56.04	3.23717
56.26	10.0611
56.48	2.56311
56.7	2.32546
56.92	8.39536
57.14	6.57691
57.36	15.9175
57.58	19.8687
57.8	18.0396
58.02	4.48084
58.24	7.05728
58.46	4.19588
58.68	6.29735
58.9	2.43153
59.12	4.56488
59.34	5.97449
59.56	10.1033
59.78	12.7303
60	1.2132
60.22	9.48479
60.44	1.09633
60.66	15.1375
60.88	7.21495
61.1	4.20967
61.32	11.3479
61.54	3.30416
61.76	4.02312
61.98	8.84364
62.2	20.6937
62.42	6.08914
62.64	9.02254
62.86	9.2095
63.08	3.91348
63.3	14.7271
63.52	11.5873
63.74	7.28536
63.96	6.13698
64.18	9.11801
64.4	15.1027
64.62	60.2001
64.84	41.7305
65.06	16.3555
65.28	8.32477
65.5	8.6659
65.72	8.98902
65.94	9.11096
66.16	5.09976
66.38	3.31197
66.6	10.218
66.82	1.05842
67.04	5.61937
67.26	13.3122
67.48	3.04689
67.7	11.0016
67.92	16.895
68.14	18.9784
68.36	6.0588
68.58	9.3839
68.8	3.75088
69.02	8.96561
69.24	8.90293
69.46	10.1501
69.68	9.36714
69.9	4.55548
70.12	4.73921
70.34	4.24536
70.56	10.4594
70.78	33.5343
71	4.4916
71.22	6.02569
71.44	2.84153
71.66	9.11001
71.88	11.3253
72.1	12.7281
72.32	29.9555
72.54	13.9588
72.76	8.09129
72.98	5.60007
73.2	9.56594
73.42	4.62458
73.64	6.82867
73.86	3.40487
74.08	0.699377
74.3	19.4542
74.52	4.49721
74.74	11.2622
74.96	3.22834
75.18	0.146556
75.4	11.7551
75.62	0.612435
75.84	5.46683
76.06	4.59628
76.28	14.9048
76.5	14.6775
76.72	5.0781
76.94	1.88708
77.16	6.64742
77.38	4.63462
77.6	10.9552
77.82	12.6161
78.04	7.41453
78.26	30.0825
78.48	19.7258
78.7	7.9546
78.92	3.07758
79.14	1.72953
79.36	8.11682
79.58	11.7813
79.8	3.67373
80.02	3.25925
80.24	3.83279
80.46	9.43582
80.68	11.8116
80.9	2.08244
81.12	10.1157
81.34	12.284
81.56	0.829557
81.78	5.64017
82	13.3777
82.22	10.1945
82.44	1.11915
82.66	3.27531
82.88	4.26705
83.1	8.22018
83.32	8.18568
83.54	1.46595
83.76	1.69814
83.98	6.60945
84.2	4.52441
84.42	6.07238
84.64	10.4705
84.86	5.31284
85.08	3.7432
85.3	9.38085
85.52	7.16859
85.74	5.99241
85.96	2.27241
86.18	4.8421
86.4	9.86365
86.62	24.3717
86.84	12.472
87.06	4.99963
87.28	1.97479
87.5	6.17894
87.72	11.5449
87.94	0.871997
88.16	8.37177
88.38	19.9812
88.6	15.4103
88.82	14.6025
89.04	8.73088
89.26	5.42063
89.48	9.07202
89.7	10.4911
89.92	8.50982
