Measurement: Powder, Xray Data XY Processed
Mineral: Miserite
Rruff sample: R060393
Ideal chemistry: K_1.5-x_(Ca,Y,REE)_5_[Si_6_O_15_][Si_2_O_7_](OH,F)_2_yH_2_O
Locality: Wilson Springs, Garland County, Arkansas, USA
Source: Michael Scott
Description: Pale purple mass of prismatic to flaky fragments
Diffraction sample description: Powder
Cell parameters: a: 10.0040(6) b: 16.0043(9) c: 7.457(1) alpha: 95.861(9) beta: 109.875(9) gamma: 76.547(5) volume: 1091.7(2) crystal system: triclinic
x	intensity
5	0
5.22	4.13427
5.44	2.24826
5.66	109.358
5.88	6.74066
6.1	2.84955
6.32	13.8782
6.54	4.11123
6.76	0.068385
6.98	8.79347
7.2	11.8971
7.42	6.68777
7.64	8.40344
7.86	9.0133
8.08	2.552
8.3	4.90436
8.52	4.12738
8.74	3.36195
8.96	9.66202
9.18	2.76501
9.4	8.19688
9.62	3.23392
9.84	6.318
10.06	19.5092
10.28	0.704342
10.5	5.7707
10.72	12.8648
10.94	7.07304
11.16	0.84046
11.38	18.5722
11.6	4.89736
11.82	1.68766
12.04	6.64061
12.26	1.71931
12.48	3.68224
12.7	2.97347
12.92	4.0142
13.14	4.11205
13.36	2.9763
13.58	6.80508
13.8	2.9392
14.02	7.92342
14.24	7.04508
14.46	1.10962
14.68	8.49189
14.9	2.75258
15.12	11.5985
15.34	4.59159
15.56	1.61552
15.78	7.87659
16	3.77148
16.22	8.75674
16.44	3.55316
16.66	8.27503
16.88	6.14948
17.1	27.7283
17.32	5.53429
17.54	9.29894
17.76	20.0855
17.98	5.64461
18.2	4.33087
18.42	2.20573
18.64	3.97523
18.86	5.27994
19.08	4.27516
19.3	22.2151
19.52	2.32652
19.74	1.40096
19.96	6.58859
20.18	7.73962
20.4	5.83406
20.62	10.9775
20.84	2.23102
21.06	5.31044
21.28	10.1553
21.5	1.16716
21.72	8.02288
21.94	9.95557
22.16	1.82135
22.38	13.8094
22.6	7.9206
22.82	24.9854
23.04	9.30281
23.26	11.2728
23.48	2.28411
23.7	2.17061
23.92	5.4089
24.14	0.460328
24.36	6.26702
24.58	3.92147
24.8	0.602978
25.02	5.78448
25.24	4.25671
25.46	7.45855
25.68	0.184597
25.9	10.1532
26.12	13.8462
26.34	7.32447
26.56	4.98567
26.78	18.2522
27	9.22735
27.22	6.99525
27.44	2.72196
27.66	4.52054
27.88	5.70904
28.1	3.97667
28.32	34.0977
28.54	123.925
28.76	23.7708
28.98	44.2622
29.2	94.2618
29.42	5.96181
29.64	5.03526
29.86	2.00452
30.08	5.83098
30.3	6.99126
30.52	59.2644
30.74	23.8335
30.96	3.21073
31.18	8.13972
31.4	7.14245
31.62	6.24496
31.84	41.8914
32.06	3.84451
32.28	30.7903
32.5	10.0391
32.72	5.8771
32.94	3.08286
33.16	10.0574
33.38	8.39316
33.6	48.0965
33.82	16.4485
34.04	2.67021
34.26	8.7473
34.48	15.1974
34.7	0.446948
34.92	0.661135
35.14	11.8743
35.36	7.00574
35.58	3.77165
35.8	7.14158
36.02	8.38033
36.24	21.7566
36.46	11.7425
36.68	15.0703
36.9	1.04815
37.12	5.9568
37.34	3.86761
37.56	8.97438
37.78	16.0295
38	15.6071
38.22	12.1829
38.44	29.513
38.66	7.11015
38.88	7.08273
39.1	16.7001
39.32	6.74018
39.54	0.680276
39.76	12.3044
39.98	4.29831
40.2	7.26488
40.42	8.37316
40.64	3.49205
40.86	5.82044
41.08	2.94764
41.3	7.73946
41.52	2.83731
41.74	22.0441
41.96	6.11638
42.18	9.5884
42.4	7.5246
42.62	7.63477
42.84	1.21703
43.06	12.1379
43.28	20.4611
43.5	4.77212
43.72	13.8888
43.94	2.97914
44.16	9.91362
44.38	3.9219
44.6	2.92113
44.82	7.67807
45.04	8.56471
45.26	8.32981
45.48	6.86011
45.7	7.00399
45.92	1.72552
46.14	12.9363
46.36	11.9653
46.58	4.37646
46.8	3.62726
47.02	6.78491
47.24	6.0285
47.46	21.2355
47.68	4.93495
47.9	11.4261
48.12	2.1372
48.34	4.13535
48.56	15.067
48.78	0.090538
49	4.76315
49.22	2.56379
49.44	7.63539
49.66	12.5046
49.88	20.5306
50.1	5.04435
50.32	14.9879
50.54	6.87538
50.76	1.9069
50.98	2.92909
51.2	3.20596
51.42	7.208
51.64	5.29297
51.86	2.40095
52.08	7.65096
52.3	12.7223
52.52	0.737844
52.74	0.500831
52.96	7.86835
53.18	1.19126
53.4	2.59617
53.62	12.414
53.84	4.42542
54.06	3.38842
54.28	9.36814
54.5	4.29975
54.72	22.3823
54.94	7.36817
55.16	34.7707
55.38	14.5074
55.6	3.36064
55.82	8.10462
56.04	6.28509
56.26	8.3437
56.48	5.35586
56.7	5.68595
56.92	1.88467
57.14	6.59994
57.36	3.45358
57.58	4.82748
57.8	1.34159
58.02	1.32627
58.24	1.92911
58.46	11.7581
58.68	6.54882
58.9	5.47829
59.12	8.27174
59.34	0.135386
59.56	1.62673
59.78	4.77363
60	9.02051
60.22	0.736606
60.44	3.59976
60.66	6.92797
60.88	4.19743
61.1	17.6069
61.32	11.6374
61.54	4.52352
61.76	8.74029
61.98	2.53593
62.2	0.607935
62.42	3.70075
62.64	9.70751
62.86	0.361845
63.08	1.13466
63.3	0.832406
63.52	6.79846
63.74	7.10376
63.96	9.34543
64.18	1.44141
64.4	2.35693
64.62	8.4253
64.84	12.3679
65.06	6.39643
65.28	1.37386
65.5	8.22064
65.72	9.41748
65.94	11.4572
66.16	10.2128
66.38	6.39177
66.6	9.37776
66.82	13.4412
67.04	2.59858
67.26	4.82875
67.48	17.8311
67.7	7.75426
67.92	7.70617
68.14	11.7163
68.36	2.62079
68.58	9.73823
68.8	3.69065
69.02	5.67767
69.24	8.76435
69.46	8.81114
69.68	9.61225
69.9	4.6221
70.12	2.60941
70.34	4.68183
70.56	3.82105
70.78	3.66359
71	1.75255
71.22	14.4695
71.44	10.7104
71.66	2.908
71.88	3.79874
72.1	0.090995
72.32	3.98783
72.54	0.091491
72.76	7.22362
72.98	8.24184
73.2	0.893449
73.42	4.41684
73.64	2.6475
73.86	8.52026
74.08	5.29333
74.3	8.47988
74.52	6.67936
74.74	3.65214
74.96	8.68606
75.18	6.29394
75.4	8.26725
75.62	1.24967
75.84	16.9201
76.06	4.56595
76.28	12.5477
76.5	1.52731
76.72	2.37818
76.94	9.0732
77.16	5.19082
77.38	10.128
77.6	12.3651
77.82	6.36879
78.04	6.56778
78.26	2.62202
78.48	5.71843
78.7	12.8261
78.92	7.8426
79.14	5.87855
79.36	4.08864
79.58	13.1236
79.8	8.11431
80.02	4.00201
80.24	11.1571
80.46	0.073347
80.68	6.93824
80.9	6.72148
81.12	0.670643
81.34	1.82688
81.56	6.64312
81.78	1.49134
82	4.36935
82.22	10.72
82.44	10.6562
82.66	7.65773
82.88	2.95643
83.1	7.15198
83.32	0.686834
83.54	1.47384
83.76	3.49242
83.98	2.76442
84.2	10.885
84.42	3.13587
84.64	5.98268
84.86	7.02867
85.08	4.20529
85.3	8.14258
85.52	2.98125
85.74	7.9265
85.96	4.94414
86.18	4.87122
86.4	7.64505
86.62	6.46682
86.84	7.61655
87.06	2.3287
87.28	9.52606
87.5	1.34471
87.72	4.18913
87.94	3.16927
88.16	10.3176
88.38	3.15548
88.6	8.2124
88.82	3.35138
89.04	4.23521
89.26	8.16911
89.48	1.37778
89.7	5.38986
89.92	10.6812
