Measurement: Powder, Xray Data XY Processed
Mineral: Molybdenum
Rruff sample: R100216
Ideal chemistry: Mo
Locality: Mining concentrate
Source: Mike Carducci, Climax Molybdenum Technology Center
Description: Black unconsolidated powder
Diffraction sample description: Powder
Cell parameters: a: 3.14728(3) b: 3.14728(3) c: 3.14728(3) alpha: 90 beta: 90 gamma: 90 volume: 31.1750(9) crystal system: cubic
x	intensity
5	0
5.22	26.1326
5.44	24.6456
5.66	27.3465
5.88	20.1385
6.1	4.31842
6.32	7.81052
6.54	16.3334
6.76	23.974
6.98	27.5821
7.2	15.5728
7.42	10.0633
7.64	2.2806
7.86	12.0346
8.08	20.7574
8.3	18.8133
8.52	38.6974
8.74	28.6016
8.96	27.8391
9.18	23.0338
9.4	34.5951
9.62	17.4787
9.84	4.43592
10.06	12.0123
10.28	4.37077
10.5	8.92664
10.72	6.24341
10.94	15.9589
11.16	8.97127
11.38	7.47522
11.6	18.3324
11.82	10.6603
12.04	5.68543
12.26	5.41936
12.48	16.5039
12.7	3.21481
12.92	15.3588
13.14	12.1245
13.36	8.22069
13.58	8.87452
13.8	4.19287
14.02	6.62086
14.24	12.2217
14.46	6.22113
14.68	21.3242
14.9	6.03748
15.12	14.166
15.34	7.16037
15.56	11.283
15.78	9.88775
16	13.494
16.22	5.30742
16.44	5.79698
16.66	13.6196
16.88	5.1056
17.1	9.39288
17.32	12.9598
17.54	1.33087
17.76	9.65931
17.98	7.80437
18.2	15.5784
18.42	4.95786
18.64	17.8002
18.86	6.39752
19.08	11.1743
19.3	7.84776
19.52	0.607642
19.74	4.18426
19.96	17.8653
20.18	1.34678
20.4	2.89356
20.62	0.409254
20.84	8.35038
21.06	15.4916
21.28	6.61824
21.5	1.80289
21.72	1.11831
21.94	8.41966
22.16	9.91763
22.38	16.7126
22.6	13.4049
22.82	9.9351
23.04	16.9919
23.26	15.6771
23.48	3.38366
23.7	4.88787
23.92	6.29193
24.14	6.66182
24.36	6.52782
24.58	15.9576
24.8	7.85934
25.02	10.1113
25.24	4.40435
25.46	6.34651
25.68	6.62767
25.9	8.10938
26.12	6.58779
26.34	5.85582
26.56	4.69544
26.78	8.37905
27	13.1986
27.22	5.38869
27.44	5.45666
27.66	3.66433
27.88	6.94799
28.1	3.40628
28.32	8.72717
28.54	9.95762
28.76	1.99622
28.98	11.8016
29.2	6.95432
29.42	2.54146
29.64	4.0972
29.86	3.75118
30.08	10.7042
30.3	8.43823
30.52	13.7687
30.74	8.95557
30.96	0.704691
31.18	5.69984
31.4	6.13775
31.62	3.16189
31.84	6.27322
32.06	15.1879
32.28	4.98825
32.5	23.4032
32.72	6.2403
32.94	16.3879
33.16	12.4076
33.38	21.2081
33.6	11.1962
33.82	1.74296
34.04	11.629
34.26	6.77152
34.48	4.21046
34.7	16.7832
34.92	1.88805
35.14	10.695
35.36	1.54357
35.58	13.4255
35.8	4.59359
36.02	6.55993
36.24	23.4029
36.46	158.53
36.68	18.4641
36.9	10.4142
37.12	5.942
37.34	3.79059
37.56	7.65652
37.78	3.0088
38	4.58064
38.22	7.41501
38.44	8.27854
38.66	1.6305
38.88	0.232498
39.1	15.6416
39.32	6.16767
39.54	10.7491
39.76	15.5474
39.98	46.9719
40.2	168.898
40.42	2557.01
40.64	3067.99
40.86	171.761
41.08	31.6108
41.3	13.8102
41.52	0.32196
41.74	9.77563
41.96	13.9262
42.18	14.6303
42.4	9.46643
42.62	10.7704
42.84	6.23564
43.06	0.448748
43.28	16.6267
43.5	1.60457
43.72	10.8819
43.94	5.34762
44.16	6.69227
44.38	13.6331
44.6	2.13636
44.82	11.083
45.04	8.40366
45.26	0.227888
45.48	10.6034
45.7	15.7263
45.92	1.43571
46.14	12.5356
46.36	1.06564
46.58	15.9001
46.8	7.82887
47.02	2.27401
47.24	7.64434
47.46	10.2022
47.68	15.413
47.9	1.67328
48.12	6.93719
48.34	6.3394
48.56	9.53228
48.78	1.59262
49	4.65264
49.22	10.7813
49.44	9.48001
49.66	3.43555
49.88	3.58564
50.1	0.219545
50.32	9.9017
50.54	3.27423
50.76	12.4573
50.98	7.57306
51.2	2.26579
51.42	2.90155
51.64	4.09999
51.86	6.33853
52.08	1.93522
52.3	9.04977
52.52	36.0285
52.74	5.14279
52.96	2.27909
53.18	7.21398
53.4	13.427
53.62	9.75546
53.84	13.9821
54.06	5.08371
54.28	10.9564
54.5	0.373764
54.72	1.68136
54.94	1.22993
55.16	0.058484
55.38	0.778434
55.6	5.60488
55.82	0.076964
56.04	2.72716
56.26	3.83279
56.48	4.64383
56.7	6.15229
56.92	6.41772
57.14	1.59819
57.36	14.6773
57.58	2.6056
57.8	5.9642
58.02	3.3912
58.24	19.8746
58.46	181.992
58.68	581.291
58.9	144.455
59.12	22.6714
59.34	8.49459
59.56	0.885828
59.78	21.8375
60	13.6973
60.22	6.36069
60.44	0.949059
60.66	12.0344
60.88	5.07082
61.1	5.21493
61.32	11.7657
61.54	8.80129
61.76	13.6756
61.98	6.85452
62.2	5.86111
62.42	0.723759
62.64	5.75683
62.86	6.98053
63.08	5.60534
63.3	2.67276
63.52	3.59807
63.74	0.614911
63.96	3.67548
64.18	1.99888
64.4	3.98529
64.62	0.067109
64.84	6.12009
65.06	2.27389
65.28	8.12964
65.5	28.5109
65.72	10.5813
65.94	4.71516
66.16	5.5689
66.38	6.6056
66.6	2.46165
66.82	6.54386
67.04	9.61573
67.26	8.86617
67.48	2.93249
67.7	9.0619
67.92	12.2383
68.14	12.2114
68.36	2.09001
68.58	3.93842
68.8	8.89667
69.02	16.6161
69.24	2.32534
69.46	6.37501
69.68	1.89212
69.9	5.48304
70.12	10.0492
70.34	4.59828
70.56	1.39219
70.78	13.3721
71	1.6894
71.22	5.02719
71.44	4.25713
71.66	7.50514
71.88	7.03607
72.1	3.64123
72.32	9.05256
72.54	2.52045
72.76	8.8307
72.98	25.6702
73.2	52.7014
73.42	197.069
73.64	1400.3
73.86	938.173
74.08	204.559
74.3	39.5749
74.52	23.5719
74.74	3.62442
74.96	3.3394
75.18	6.04977
75.4	7.57593
75.62	0.558792
75.84	0.444219
76.06	9.75578
76.28	4.55846
76.5	12.1304
76.72	2.42184
76.94	8.25196
77.16	12.7293
77.38	12.8961
77.6	9.836
77.82	9.11943
78.04	2.81234
78.26	12.9374
78.48	8.00426
78.7	3.44687
78.92	5.14942
79.14	6.2032
79.36	6.38239
79.58	9.42672
79.8	1.58576
80.02	1.45477
80.24	20.7299
80.46	8.90731
80.68	6.93753
80.9	8.01102
81.12	8.84078
81.34	1.55419
81.56	1.47983
81.78	4.42074
82	6.35409
82.22	1.68632
82.44	0.794375
82.66	3.68021
82.88	1.55328
83.1	6.66838
83.32	13.603
83.54	3.78484
83.76	7.79478
83.98	4.89494
84.2	7.89702
84.42	3.83632
84.64	10.3901
84.86	5.41796
85.08	6.11775
85.3	12.9001
85.52	0.042311
85.74	9.42243
85.96	2.44031
86.18	3.37666
86.4	7.09764
86.62	1.10735
86.84	6.07989
87.06	19.1754
87.28	51.2524
87.5	225.684
87.72	246.384
87.94	188.868
88.16	40.4766
88.38	2.38094
88.6	17.4611
88.82	14.3653
89.04	4.69473
89.26	0.461553
89.48	9.91926
89.7	2.412
89.92	8.59693
