Measurement: Powder, Xray Data XY Processed
Mineral: Molybdite
Rruff sample: R100217
Ideal chemistry: Mo^6+^O_3_
Locality: Mining concentrate
Source: Mike Carducci, Climax Molybdenum Technology Center
Description: Gray unconsolidated powder
Diffraction sample description: Powder
Cell parameters: a: 3.9601(2) b: 13.8592(4) c: 3.6958(1) alpha: 90 beta: 90 gamma: 90 volume: 202.84(1) crystal system: orthorhombic
x	intensity
5	0
5.22	23.8642
5.44	30.8235
5.66	16.8859
5.88	27.9422
6.1	37.8884
6.32	12.7134
6.54	1.25024
6.76	10.097
6.98	16.4134
7.2	12.7196
7.42	6.67874
7.64	2.23776
7.86	24.5522
8.08	14.841
8.3	17.9072
8.52	15.0468
8.74	8.7005
8.96	13.2841
9.18	5.50861
9.4	4.49684
9.62	2.31153
9.84	9.68731
10.06	10.9311
10.28	14.186
10.5	5.13156
10.72	5.38052
10.94	15.882
11.16	3.59486
11.38	30.5407
11.6	25.2484
11.82	12.2747
12.04	19.3428
12.26	26.0726
12.48	123.501
12.7	2576.12
12.92	142.818
13.14	28.4419
13.36	11.4449
13.58	6.26458
13.8	9.79324
14.02	17.9031
14.24	3.71087
14.46	16.5574
14.68	6.7932
14.9	3.82394
15.12	0.486954
15.34	17.8018
15.56	13.3221
15.78	31.5264
16	4.84905
16.22	23.4867
16.44	16.7516
16.66	1.25951
16.88	9.28589
17.1	13.5857
17.32	18.6122
17.54	3.35328
17.76	18.0406
17.98	14.5263
18.2	14.242
18.42	7.119
18.64	3.06677
18.86	11.4897
19.08	17.2055
19.3	15.577
19.52	2.51314
19.74	18.0376
19.96	12.3445
20.18	7.78392
20.4	15.9234
20.62	21.0306
20.84	18.1315
21.06	54.4793
21.28	12.9201
21.5	2.89658
21.72	13.7174
21.94	10.9527
22.16	1.13205
22.38	12.3132
22.6	21.2523
22.82	0.818718
23.04	130.327
23.26	1535.87
23.48	536.276
23.7	86.2202
23.92	22.1985
24.14	6.32975
24.36	2.1684
24.58	31.8387
24.8	23.8226
25.02	18.2956
25.24	55.3299
25.46	209.803
25.68	2834.28
25.9	254.277
26.12	64.0938
26.34	28.9423
26.56	10.0894
26.78	21.7607
27	43.8914
27.22	764.727
27.44	421.126
27.66	22.7616
27.88	8.10197
28.1	6.87497
28.32	4.88486
28.54	11.3344
28.76	6.33711
28.98	7.02389
29.2	30.9617
29.42	83.1175
29.64	149.833
29.86	64.854
30.08	6.75368
30.3	6.54819
30.52	13.0461
30.74	5.06022
30.96	5.98468
31.18	0.954376
31.4	12.327
31.62	14.8431
31.84	17.6957
32.06	11.5474
32.28	15.5193
32.5	11.7475
32.72	8.67608
32.94	31.5874
33.16	263.927
33.38	65.3674
33.6	204.049
33.82	352.51
34.04	21.767
34.26	5.8316
34.48	2.64816
34.7	0.558971
34.92	19.3132
35.14	8.4053
35.36	75.1201
35.58	96.6588
35.8	13.0859
36.02	4.82538
36.24	12.3549
36.46	16.0891
36.68	3.27733
36.9	7.87385
37.12	2.63966
37.34	3.29431
37.56	16.9743
37.78	7.61885
38	12.6706
38.22	26.7387
38.44	84.1582
38.66	178.016
38.88	900.716
39.1	434.726
39.32	93.0919
39.54	168.612
39.76	207.478
39.98	56.0958
40.2	24.117
40.42	10.1571
40.64	9.1023
40.86	11.5665
41.08	9.55674
41.3	15.3313
41.52	21.8048
41.74	1.07119
41.96	21.0396
42.18	22.4902
42.4	24.9017
42.62	16.2405
42.84	9.27129
43.06	16.7539
43.28	4.07069
43.5	10.5268
43.72	2.11277
43.94	6.36543
44.16	0.438396
44.38	11.8468
44.6	12.4927
44.82	6.63215
45.04	3.08099
45.26	8.13687
45.48	5.2173
45.7	161.801
45.92	125.395
46.14	156.853
46.36	288.002
46.58	54.0544
46.8	23.51
47.02	12.0759
47.24	10.3409
47.46	1.89484
47.68	0.698635
47.9	11.6659
48.12	24.2444
48.34	12.321
48.56	0.242012
48.78	0.570107
49	12.6589
49.22	385.165
49.44	90.7716
49.66	29.3475
49.88	59.4154
50.1	52.0126
50.32	24.5664
50.54	19.1619
50.76	9.22903
50.98	0.830753
51.2	9.48171
51.42	6.16556
51.64	20.0879
51.86	21.9836
52.08	12.0213
52.3	21.8671
52.52	67.0885
52.74	177.997
52.96	138.232
53.18	41.7909
53.4	19.3547
53.62	17.9709
53.84	17.8682
54.06	58.0784
54.28	46.035
54.5	8.83598
54.72	3.22173
54.94	8.45282
55.16	204.654
55.38	86.2743
55.6	11.753
55.82	6.03766
56.04	20.89
56.26	47.7539
56.48	95.0909
56.7	23.5587
56.92	12.0789
57.14	8.83479
57.36	56.5973
57.58	171.674
57.8	122.638
58.02	65.0449
58.24	6.53211
58.46	49.0658
58.68	204.672
58.9	287.888
59.12	47.8916
59.34	15.2324
59.56	2.41748
59.78	1.82845
60	18.563
60.22	12.4018
60.44	2.5156
60.66	1.5095
60.88	18.8237
61.1	2.92596
61.32	1.6815
61.54	23.8754
61.76	26.5457
61.98	18.8873
62.2	35.0339
62.42	18.3905
62.64	29.4966
62.86	34.8098
63.08	29.1435
63.3	22.1385
63.52	14.4113
63.74	6.99242
63.96	9.53793
64.18	25.0724
64.4	82.6287
64.62	129.416
64.84	104.292
65.06	116.709
65.28	35.3825
65.5	14.6581
65.72	1.64576
65.94	9.69384
66.16	7.70671
66.38	22.9539
66.6	24.4138
66.82	11.9911
67.04	12.4975
67.26	31.8586
67.48	140.759
67.7	82.6167
67.92	14.3107
68.14	10.6291
68.36	3.69878
68.58	1.4446
68.8	3.87334
69.02	1.31212
69.24	14.305
69.46	74.5692
69.68	56.7847
69.9	24.5379
70.12	28.5528
70.34	16.2004
70.56	13.9237
70.78	7.66044
71	5.73269
71.22	14.254
71.44	6.86833
71.66	13.5462
71.88	3.23684
72.1	20.3752
72.32	16.725
72.54	34.3702
72.76	50.631
72.98	47.3854
73.2	38.1477
73.42	13.3661
73.64	11.482
73.86	7.32841
74.08	10.9492
74.3	0.561377
74.52	8.27311
74.74	0.018801
74.96	4.21879
75.18	4.02916
75.4	18.8793
75.62	21.3496
75.84	15.6822
76.06	10.2674
76.28	11.9519
76.5	66.7837
76.72	34.5997
76.94	14.2284
77.16	20.4046
77.38	23.5574
77.6	25.3763
77.82	20.9927
78.04	10.8595
78.26	15.5818
78.48	7.14305
78.7	13.9349
78.92	9.9615
79.14	20.3034
79.36	8.90599
79.58	16.6048
79.8	15.9214
80.02	7.93787
80.24	11.1266
80.46	8.21166
80.68	20.0135
80.9	11.8419
81.12	2.38872
81.34	4.45447
81.56	16.9162
81.78	19.8505
82	28.8175
82.22	25.446
82.44	33.8437
82.66	20.9973
82.88	19.8929
83.1	33.0046
83.32	0.741253
83.54	0.765152
83.76	7.60204
83.98	5.89888
84.2	3.63414
84.42	16.8189
84.64	38.7488
84.86	34.3289
85.08	44.6043
85.3	32.6686
85.52	49.5699
85.74	36.1902
85.96	9.45412
86.18	8.60899
86.4	4.48064
86.62	7.97693
86.84	9.0429
87.06	12.5604
87.28	3.8695
87.5	4.80189
87.72	11.8178
87.94	58.6621
88.16	24.0387
88.38	13.0078
88.6	67.6622
88.82	51.4296
89.04	30.9705
89.26	30.4641
89.48	1.65239
89.7	9.31169
89.92	11.486
