Measurement: Powder, Xray Data XY Processed
Mineral: Montebrasite
Rruff sample: R040060
Ideal chemistry: LiAlPO_4_(OH)
Locality: Oxford County, Maine, USA
Source: University of Arizona Mineral Museum
Description: White massive
Diffraction sample description: Powder
Measured chemistry: LiAl(PO_4_)((OH)_0.79_F_0.21_)
Cell parameters: a: 6.7105(5) b: 7.7179(6) c: 7.0047(5) alpha: 91.195(6) beta: 117.861(6) gamma: 91.586(7) volume: 320.37(3) crystal system: triclinic
x	intensity
5	0
5.22	3.338
5.44	21.693
5.66	16.175
5.88	15.093
6.1	18.584
6.32	8.86
6.54	17.621
6.76	11.573
6.98	13.827
7.2	4.735
7.42	8.911
7.64	3.963
7.86	6.078
8.08	7.153
8.3	11.713
8.52	13.122
8.74	4.748
8.96	19.13
9.18	6.699
9.4	16.959
9.62	8.145
9.84	4.815
10.06	10.95
10.28	2.962
10.5	9.951
10.72	8.07
10.94	6.025
11.16	9.037
11.38	6.289
11.6	16.008
11.82	8.762
12.04	8.545
12.26	2.633
12.48	5.087
12.7	1.732
12.92	6.593
13.14	3.366
13.36	20.622
13.58	0.39
13.8	0.713
14.02	28.835
14.24	10.161
14.46	1.907
14.68	0.798
14.9	6.245
15.12	6.285
15.34	6.324
15.56	29.295
15.78	6.886
16	3.334
16.22	2.498
16.44	13.709
16.66	6.055
16.88	1.411
17.1	6.052
17.32	8.2
17.54	4.599
17.76	21.788
17.98	9.031
18.2	3.178
18.42	70.443
18.64	110.344
18.86	175.554
19.08	462.557
19.3	178.153
19.52	45.245
19.74	8.776
19.96	1.647
20.18	30.423
20.4	4.131
20.62	2.23
20.84	14.91
21.06	36.862
21.28	2.784
21.5	5.583
21.72	3.501
21.94	8.655
22.16	6.795
22.38	5.909
22.6	18.687
22.82	14.835
23.04	24.576
23.26	6.973
23.48	0.879
23.7	3.048
23.92	8.007
24.14	7.967
24.36	6.872
24.58	8.372
24.8	7.376
25.02	16.657
25.24	5.67
25.46	51.064
25.68	18.028
25.9	11.596
26.12	3.8
26.34	10.054
26.56	24.413
26.78	193.638
27	7.879
27.22	119.089
27.44	5.699
27.66	37.337
27.88	208.249
28.1	22.432
28.32	365.127
28.54	0.665
28.76	61.409
28.98	72.068
29.2	0.92
29.42	17.259
29.64	7.073
29.86	110.111
30.08	75.148
30.3	66.77
30.52	21.665
30.74	9.018
30.96	1.171
31.18	8.537
31.4	6.623
31.62	37.83
31.84	1.572
32.06	13.638
32.28	4.44
32.5	10.788
32.72	13.216
32.94	10.098
33.16	38.468
33.38	20.327
33.6	3.668
33.82	13.94
34.04	11.452
34.26	3.054
34.48	7.287
34.7	63.524
34.92	48.065
35.14	12.687
35.36	27.591
35.58	2.518
35.8	2.457
36.02	76.837
36.24	6.933
36.46	14.934
36.68	16.028
36.9	1.067
37.12	0.669
37.34	9.979
37.56	190.752
37.78	24.413
38	28.023
38.22	11.608
38.44	35.084
38.66	7.571
38.88	14.559
39.1	46.9
39.32	30.79
39.54	4.919
39.76	13.295
39.98	29.442
40.2	8.913
40.42	1.721
40.64	1.418
40.86	11.917
41.08	35.839
41.3	9.698
41.52	5.134
41.74	5.367
41.96	13.82
42.18	0.723
42.4	37.782
42.62	77.888
42.84	14.915
43.06	46.028
43.28	3.619
43.5	10.827
43.72	1.326
43.94	21.714
44.16	6.069
44.38	5.021
44.6	26.069
44.82	14.428
45.04	7.773
45.26	24.75
45.48	11.59
45.7	7.172
45.92	6.712
46.14	15.21
46.36	51.747
46.58	29.342
46.8	27.465
47.02	14.488
47.24	40.307
47.46	12.409
47.68	7.644
47.9	18.557
48.12	44.968
48.34	7.613
48.56	2.816
48.78	8.683
49	2.607
49.22	12.73
49.44	10.384
49.66	10.581
49.88	3.108
50.1	18.107
50.32	4.532
50.54	10.446
50.76	5.185
50.98	45.038
51.2	7.735
51.42	15.596
51.64	10.148
51.86	29.055
52.08	18.213
52.3	29.534
52.52	23.53
52.74	11.777
52.96	0.1
53.18	3.098
53.4	7.418
53.62	1.599
53.84	1.964
54.06	10.042
54.28	7.955
54.5	9.332
54.72	10.553
54.94	14.251
55.16	33.739
55.38	13.042
55.6	16.063
55.82	29.62
56.04	11.327
56.26	20.19
56.48	2.179
56.7	4.11
56.92	30.11
57.14	42.32
57.36	40.388
57.58	53.266
57.8	40.777
58.02	5.565
58.24	6.027
58.46	85.6
58.68	16.441
58.9	0.435
59.12	3.947
59.34	16.32
59.56	0.444
59.78	9.723
60	0.124
60.22	22.833
60.44	23.405
60.66	15.826
60.88	11.344
61.1	22.071
61.32	20.558
61.54	16.364
61.76	2.583
61.98	7.509
62.2	9.572
62.42	0.897
62.64	53.998
62.86	32.079
63.08	3.031
63.3	8.993
63.52	3.417
63.74	7.39
63.96	7.462
64.18	4.777
64.4	2.798
64.62	0.278
64.84	10.346
65.06	6.627
65.28	2.084
65.5	4.584
65.72	28.17
65.94	9.039
66.16	0.906
66.38	1.053
66.6	8.632
66.82	17.789
67.04	1.163
67.26	9.442
67.48	8.864
67.7	14.725
67.92	15.122
68.14	0.212
68.36	3.176
68.58	1.422
68.8	4.12
69.02	5.786
69.24	2.29
69.46	9.715
69.68	7.887
69.9	8.646
70.12	4.657
70.34	5.823
70.56	11.165
70.78	5.135
71	7.021
71.22	4.549
71.44	0.854
71.66	13.623
71.88	13.159
72.1	6.861
72.32	20.491
72.54	5.206
72.76	2.751
72.98	17.164
73.2	8.33
73.42	3.605
73.64	19.651
73.86	19.861
74.08	16.403
74.3	0.024
74.52	9.113
74.74	5.247
74.96	11.456
75.18	2.324
75.4	10.827
75.62	10.572
75.84	15.744
76.06	14.039
76.28	22.392
76.5	15.406
76.72	5.36
76.94	4.777
77.16	2.125
77.38	6.37
77.6	7.589
77.82	1.863
78.04	0.038
78.26	15.283
78.48	14.36
78.7	8.341
78.92	5.104
79.14	9.045
79.36	12.884
79.58	5.992
79.8	0.776
80.02	7.636
80.24	7.827
80.46	11.966
80.68	7.465
80.9	3.388
81.12	8.289
81.34	3.202
81.56	0.861
81.78	8.071
82	8.962
82.22	14.797
82.44	12.475
82.66	8.222
82.88	13.247
83.1	4.569
83.32	6.674
83.54	11.81
83.76	0.961
83.98	9.165
84.2	8.684
84.42	5.049
84.64	8.244
84.86	1.38
85.08	7.717
85.3	4.846
85.52	0.712
85.74	0.813
85.96	1.909
86.18	7.42
86.4	6.581
86.62	10.252
86.84	4.153
87.06	6.138
87.28	15.149
87.5	7.961
87.72	0.016
87.94	5.909
88.16	8.98
88.38	4.91
88.6	6.378
88.82	2.169
89.04	9.04
89.26	12.841
89.48	5.617
89.7	7.331
89.92	4.868
