Measurement: Powder, Xray Data XY Processed
Mineral: Montebrasite
Rruff sample: R050500
Ideal chemistry: LiAlPO_4_(OH)
Locality: Pala, San Diego County, California, USA
Source: California Institute of Technology
Description: White fragment
Diffraction sample description: Powder
Measured chemistry: LiAl(PO_4_)((OH)_0.52_F_0.48_)
Cell parameters: a: 6.6979(3) b: 7.7195(4) c: 6.9782(2) alpha: 90.958(4) beta: 117.770(4) gamma: 91.413(5) volume: 318.99(2) crystal system: triclinic
x	intensity
5	0
5.22	7.08
5.44	11.882
5.66	10.303
5.88	12.979
6.1	10.423
6.32	24.706
6.54	31.288
6.76	11.907
6.98	2.843
7.2	10.921
7.42	6.827
7.64	8.468
7.86	6.206
8.08	10.871
8.3	15.13
8.52	12.931
8.74	11.437
8.96	7.677
9.18	8.888
9.4	7.147
9.62	4.328
9.84	5.306
10.06	11.464
10.28	5.394
10.5	8.252
10.72	6.445
10.94	2.306
11.16	6.011
11.38	4.916
11.6	7.889
11.82	8.614
12.04	3.31
12.26	2.215
12.48	4.413
12.7	10.626
12.92	3.728
13.14	6.547
13.36	0.546
13.58	7.992
13.8	6.19
14.02	7.144
14.24	1.229
14.46	6.276
14.68	3.338
14.9	0.178
15.12	4.032
15.34	6.037
15.56	4.105
15.78	2.819
16	1.487
16.22	3.497
16.44	10.954
16.66	3.057
16.88	13.673
17.1	2.789
17.32	8.769
17.54	7.707
17.76	0.386
17.98	3.528
18.2	2.932
18.42	7.66
18.64	50.577
18.86	23.437
19.08	196.598
19.3	141.047
19.52	4.926
19.74	6.079
19.96	5.392
20.18	5.765
20.4	4.981
20.62	6.534
20.84	9.129
21.06	3.326
21.28	10.324
21.5	8.496
21.72	2.724
21.94	0.884
22.16	7.973
22.38	0.049
22.6	7.257
22.82	6.505
23.04	15.233
23.26	3.953
23.48	4.993
23.7	0.064
23.92	1.069
24.14	3.942
24.36	1.957
24.58	2.88
24.8	0.184
25.02	10.223
25.24	10.618
25.46	6.064
25.68	1.358
25.9	1.542
26.12	2.294
26.34	6.153
26.56	1.837
26.78	20.599
27	71.345
27.22	16.822
27.44	121.539
27.66	120.772
27.88	31.615
28.1	68.66
28.32	375.354
28.54	17.457
28.76	0.017
28.98	14.642
29.2	4.377
29.42	0.165
29.64	3.889
29.86	4.549
30.08	44.379
30.3	367.473
30.52	37.15
30.74	7.123
30.96	4.485
31.18	1.104
31.4	0.839
31.62	5.329
31.84	2.799
32.06	0.591
32.28	8.814
32.5	0.73
32.72	9.105
32.94	7.346
33.16	4.55
33.38	4.361
33.6	3.556
33.82	5.459
34.04	0.557
34.26	4.465
34.48	0.388
34.7	2.398
34.92	5.114
35.14	55.065
35.36	2.169
35.58	3.769
35.8	6.627
36.02	59.6
36.24	2.576
36.46	7.322
36.68	8.934
36.9	4.32
37.12	3.118
37.34	6.918
37.56	18.55
37.78	49.865
38	6.662
38.22	4.492
38.44	14.13
38.66	12.303
38.88	6.462
39.1	13.689
39.32	2.525
39.54	30.914
39.76	2.192
39.98	13.566
40.2	2.936
40.42	6.444
40.64	0.657
40.86	4.892
41.08	12.066
41.3	5.144
41.52	5.025
41.74	2.553
41.96	1.336
42.18	2.807
42.4	7.215
42.62	25.124
42.84	26.969
43.06	11.967
43.28	28.723
43.5	2.512
43.72	4.934
43.94	0.833
44.16	7.507
44.38	8.579
44.6	1.943
44.82	3.955
45.04	3.881
45.26	0.108
45.48	5.813
45.7	3.731
45.92	3.591
46.14	6.044
46.36	8.612
46.58	71.058
46.8	16.005
47.02	26.662
47.24	40.689
47.46	2.967
47.68	3.103
47.9	15.495
48.12	50.891
48.34	5.312
48.56	0.445
48.78	1.878
49	7.464
49.22	1.23
49.44	5.922
49.66	0.952
49.88	2.634
50.1	6.324
50.32	7.054
50.54	3.905
50.76	2.497
50.98	36.182
51.2	3.194
51.42	1.98
51.64	3.752
51.86	5.681
52.08	10.031
52.3	10.335
52.52	34.637
52.74	47.779
52.96	4.727
53.18	1.026
53.4	0.795
53.62	3.898
53.84	1.651
54.06	5.353
54.28	1.091
54.5	3.437
54.72	6.841
54.94	4.272
55.16	2.196
55.38	33.201
55.6	0.77
55.82	4.465
56.04	0.741
56.26	1.863
56.48	16.998
56.7	11.9
56.92	9.895
57.14	51.007
57.36	35.134
57.58	12.892
57.8	36.399
58.02	19.907
58.24	8.315
58.46	32.119
58.68	9.639
58.9	1.894
59.12	13.496
59.34	7.821
59.56	0.87
59.78	2.312
60	15.518
60.22	23.153
60.44	1.684
60.66	10.757
60.88	35.69
61.1	9.8
61.32	0.825
61.54	7.89
61.76	8.811
61.98	3.736
62.2	9.745
62.42	7.679
62.64	6.511
62.86	44.496
63.08	15.579
63.3	5.536
63.52	1.355
63.74	11.726
63.96	10.631
64.18	0.301
64.4	1.232
64.62	2.734
64.84	6.66
65.06	29.899
65.28	16.256
65.5	0.984
65.72	1.536
65.94	13.321
66.16	3.994
66.38	1.852
66.6	15.661
66.82	34.506
67.04	5.459
67.26	0.628
67.48	5.43
67.7	3.212
67.92	7.437
68.14	5.878
68.36	10.988
68.58	1.091
68.8	7.723
69.02	5.091
69.24	4.35
69.46	0.546
69.68	3.559
69.9	2.598
70.12	0.366
70.34	5.759
70.56	5.882
70.78	4.864
71	4.721
71.22	0.523
71.44	7.2
71.66	5.196
71.88	3.223
72.1	10.081
72.32	11.812
72.54	7.381
72.76	1.832
72.98	7.546
73.2	0.345
73.42	11.08
73.64	8.045
73.86	6.968
74.08	60.263
74.3	49.436
74.52	5.882
74.74	2.119
74.96	5.298
75.18	5.617
75.4	0.931
75.62	1.394
75.84	51.598
76.06	62.947
76.28	27.237
76.5	8.244
76.72	6.211
76.94	6.884
77.16	1.85
77.38	1.231
77.6	2.305
77.82	6.527
78.04	7.182
78.26	11.078
78.48	0.878
78.7	0.767
78.92	7.42
79.14	8.366
79.36	4.653
79.58	3.842
79.8	12.287
80.02	4.346
80.24	4.569
80.46	0.35
80.68	3.99
80.9	2.839
81.12	3.706
81.34	2.562
81.56	7.382
81.78	0.96
82	4.802
82.22	1.458
82.44	10.547
82.66	9.612
82.88	17.879
83.1	15.086
83.32	3.556
83.54	3.849
83.76	3.144
83.98	1.57
84.2	5.69
84.42	8.983
84.64	0.335
84.86	22.42
85.08	10.411
85.3	2.345
85.52	3.151
85.74	4.007
85.96	6.988
86.18	2.971
86.4	4.996
86.62	4.031
86.84	7.848
87.06	0.576
87.28	4.373
87.5	3.372
87.72	2.157
87.94	5.927
88.16	7.794
88.38	3.671
88.6	5.532
88.82	5.579
89.04	4.472
89.26	5.311
89.48	5.542
89.7	6.817
89.92	10.299
