Measurement: Powder, Xray Data XY Processed
Mineral: Mooreite
Rruff sample: R060089
Ideal chemistry: Mg_15_(S^6+^O_4_)_2_(OH)_26_8H_2_O
Locality: Sterling Hill, New Jersey, USA
Source: University of Arizona Mineral Museum
Description: Tan fragment showing well-developed cleavage
Diffraction sample description: Powder
Measured chemistry: Mg_9.00_Zn_4.00_(Mn^2+^_1.85_Mg_0.15_)_Σ=2_(S_1.00_O_4_)_2_(OH)_26_·8H_2_O
Cell parameters: a: 11.1727(9) b: 20.371(1) c: 8.2329(6) alpha: 90 beta: 92.810(7) gamma: 90 volume: 1871.6(2) crystal system: monoclinic
x	intensity
5	0
5.22	15.387
5.44	17.388
5.66	14.596
5.88	19.464
6.1	21.334
6.32	15.981
6.54	7.372
6.76	16.593
6.98	6.834
7.2	3.488
7.42	10.153
7.64	14.82
7.86	16.26
8.08	2.043
8.3	2.061
8.52	25.229
8.74	897.934
8.96	29.527
9.18	14.169
9.4	15.321
9.62	4.763
9.84	17.23
10.06	7.925
10.28	1.243
10.5	3.767
10.72	36.845
10.94	31.057
11.16	4.705
11.38	2.546
11.6	12.669
11.82	7.584
12.04	1.575
12.26	6.836
12.48	0.122
12.7	4.333
12.92	7.317
13.14	5.705
13.36	6.578
13.58	1.004
13.8	28.882
14.02	3.12
14.24	12.151
14.46	23.493
14.68	3.08
14.9	4.898
15.12	2.768
15.34	24.683
15.56	7.928
15.78	19.319
16	9.908
16.22	14.62
16.44	12.142
16.66	5.083
16.88	6.932
17.1	5.796
17.32	20.613
17.54	77.031
17.76	10.303
17.98	5.776
18.2	11.827
18.42	6.3
18.64	2.921
18.86	14.89
19.08	10.488
19.3	82.975
19.52	14.675
19.74	9.748
19.96	17.82
20.18	76.215
20.4	19.435
20.62	49.847
20.84	16.878
21.06	5.956
21.28	2.426
21.5	0.201
21.72	46.039
21.94	13.206
22.16	15.86
22.38	1.332
22.6	3.867
22.82	4.921
23.04	32.799
23.26	2.347
23.48	12.423
23.7	103.104
23.92	55.903
24.14	9.61
24.36	8.494
24.58	9.333
24.8	2.904
25.02	8.704
25.24	4.617
25.46	1.705
25.68	19.574
25.9	69.796
26.12	13.903
26.34	49.629
26.56	10.227
26.78	10.197
27	20.486
27.22	14.799
27.44	20.091
27.66	0.803
27.88	0.937
28.1	9.163
28.32	6.662
28.54	48.776
28.76	1.024
28.98	26.507
29.2	15.019
29.42	7.784
29.64	20.727
29.86	6.541
30.08	8.251
30.3	2.889
30.52	7.594
30.74	4.074
30.96	32.789
31.18	13.33
31.4	5.22
31.62	14.515
31.84	14.394
32.06	20.982
32.28	11.402
32.5	35.519
32.72	4.242
32.94	11.737
33.16	9.358
33.38	21.09
33.6	104.135
33.82	6.245
34.04	9.734
34.26	15.836
34.48	43.546
34.7	18.465
34.92	7.113
35.14	10.479
35.36	44.13
35.58	16.456
35.8	1.636
36.02	30.822
36.24	14.861
36.46	8.971
36.68	29.847
36.9	15.835
37.12	1.563
37.34	1.49
37.56	8.635
37.78	46.667
38	15.93
38.22	10.063
38.44	18.17
38.66	9.033
38.88	26.041
39.1	26.499
39.32	14.935
39.54	2.172
39.76	11.464
39.98	10.53
40.2	32.356
40.42	7.345
40.64	7.613
40.86	5.147
41.08	1.159
41.3	17.589
41.52	4.698
41.74	7.779
41.96	5.902
42.18	21.592
42.4	5.596
42.62	17.06
42.84	30.318
43.06	16.321
43.28	2.496
43.5	9.84
43.72	8.992
43.94	9.488
44.16	3.454
44.38	10.544
44.6	22.057
44.82	27.485
45.04	11.298
45.26	3.894
45.48	18.695
45.7	8.453
45.92	10.527
46.14	31.52
46.36	17.354
46.58	0.301
46.8	4.912
47.02	1.534
47.24	2.047
47.46	5.828
47.68	8.575
47.9	4.609
48.12	4.727
48.34	8.205
48.56	18.126
48.78	4.817
49	9.386
49.22	20.304
49.44	0.733
49.66	8.114
49.88	7.708
50.1	11.039
50.32	9.191
50.54	0.836
50.76	8.262
50.98	7.89
51.2	18.354
51.42	14.987
51.64	13.007
51.86	1.302
52.08	6.204
52.3	12.818
52.52	9.419
52.74	25.178
52.96	40.113
53.18	9.869
53.4	9.481
53.62	2.831
53.84	1.034
54.06	2.12
54.28	3.143
54.5	9.789
54.72	6.864
54.94	8.323
55.16	17.191
55.38	22.151
55.6	5.999
55.82	4.949
56.04	3.408
56.26	15.619
56.48	20.835
56.7	30.069
56.92	32.653
57.14	1.077
57.36	2.911
57.58	19.054
57.8	15.347
58.02	4.484
58.24	9.21
58.46	7.54
58.68	18.048
58.9	9.408
59.12	10.627
59.34	23.513
59.56	20.809
59.78	49.851
60	44.92
60.22	14.457
60.44	6.175
60.66	45.515
60.88	15.665
61.1	0.653
61.32	19.166
61.54	7.017
61.76	5.931
61.98	7.507
62.2	1.374
62.42	3.169
62.64	9.786
62.86	26.231
63.08	10.039
63.3	2.472
63.52	5.475
63.74	9.553
63.96	12.55
64.18	22.415
64.4	4.876
64.62	8.962
64.84	10.141
65.06	19.32
65.28	23.509
65.5	6.137
65.72	6.59
65.94	2.985
66.16	15.186
66.38	17.312
66.6	13.086
66.82	8.735
67.04	9.652
67.26	14.574
67.48	12.325
67.7	14.668
67.92	10.54
68.14	7.917
68.36	3.329
68.58	9.801
68.8	10.328
69.02	6.484
69.24	5.102
69.46	16.974
69.68	3.705
69.9	9.486
70.12	12.665
70.34	11.811
70.56	13.652
70.78	19.3
71	13.968
71.22	2.953
71.44	2.383
71.66	14.959
71.88	5.553
72.1	0.88
72.32	0.023
72.54	9.153
72.76	9.783
72.98	7.58
73.2	3.492
73.42	14.75
73.64	2.564
73.86	22.548
74.08	19.337
74.3	20.098
74.52	16.954
74.74	4.115
74.96	7.226
75.18	13.416
75.4	3.522
75.62	6.612
75.84	4.843
76.06	3.945
76.28	12.869
76.5	1.414
76.72	9.327
76.94	16.21
77.16	10.073
77.38	5.19
77.6	22.165
77.82	10.201
78.04	16.182
78.26	1.009
78.48	5.023
78.7	2.023
78.92	4.015
79.14	18.082
79.36	1.164
79.58	16.489
79.8	18.399
80.02	21.23
80.24	4.75
80.46	4.422
80.68	1.398
80.9	10.331
81.12	13.366
81.34	23.065
81.56	6.638
81.78	10.995
82	8.761
82.22	0.294
82.44	13.579
82.66	9.717
82.88	10.705
83.1	1.21
83.32	15.815
83.54	2.547
83.76	11.963
83.98	11.983
84.2	4.845
84.42	11.056
84.64	14.233
84.86	0.264
85.08	7.904
85.3	9.859
85.52	11.569
85.74	0.321
85.96	4.047
86.18	2.453
86.4	11.951
86.62	6.941
86.84	15.709
87.06	11.529
87.28	2.715
87.5	10.193
87.72	2.683
87.94	11.773
88.16	1.28
88.38	8.816
88.6	3.943
88.82	9.081
89.04	26.483
89.26	7.931
89.48	3.218
89.7	2.839
89.92	6.232
