Measurement: Powder, Xray Data XY Processed
Mineral: Moraesite
Rruff sample: R070480
Ideal chemistry: Be_2_PO_4_(OH)4H_2_O
Locality: Itinga, Minas Gerais, Brazil
Source: Bob Jenkins
Description: Unconsolidated colorless flat fragments
Diffraction sample description: Powder
Cell parameters: a: 8.5535(6) b: 12.2962(8) c: 7.1371(8) alpha: 90 beta: 97.74(1) gamma: 90 volume: 743.82(8) crystal system: monoclinic
x	intensity
5	0
5.22	9.08419
5.44	12.4886
5.66	11.9705
5.88	22.8996
6.1	18.1745
6.32	1.84458
6.54	5.36777
6.76	24.5205
6.98	15.17
7.2	22.4698
7.42	3.1898
7.64	16.0458
7.86	17.508
8.08	1.70548
8.3	12.9133
8.52	7.50093
8.74	26.2409
8.96	2.62891
9.18	8.736
9.4	2.21984
9.62	13.5412
9.84	17.3172
10.06	12.9378
10.28	8.87012
10.5	25.39
10.72	11.3235
10.94	31.1457
11.16	15.0209
11.38	26.3115
11.6	15.9525
11.82	7.64973
12.04	27.9085
12.26	46.4231
12.48	101.15
12.7	1667.23
12.92	71.1747
13.14	30.6141
13.36	24.4019
13.58	23.3184
13.8	45.0469
14.02	20.325
14.24	45.4883
14.46	81.4784
14.68	8.03862
14.9	8.18436
15.12	50.1151
15.34	16.6257
15.56	15.0374
15.78	26.5355
16	9.5383
16.22	20.3477
16.44	1.98213
16.66	39.3407
16.88	56.3932
17.1	50.7306
17.32	28.5996
17.54	10.104
17.76	10.6523
17.98	12.5964
18.2	20.8084
18.42	15.085
18.64	8.08131
18.86	17.818
19.08	22.6123
19.3	6.46397
19.52	15.8873
19.74	1.05116
19.96	23.421
20.18	8.82855
20.4	10.3734
20.62	6.78237
20.84	55.8161
21.06	57.7005
21.28	32.3701
21.5	14.3133
21.72	6.578
21.94	19.384
22.16	27.3979
22.38	16.9515
22.6	5.88425
22.82	16.302
23.04	9.17957
23.26	22.3438
23.48	10.0854
23.7	27.5104
23.92	6.70645
24.14	19.4351
24.36	1.59287
24.58	18.4858
24.8	0.520653
25.02	4.51032
25.24	57.01
25.46	38.3685
25.68	8.72736
25.9	1.92581
26.12	16.1765
26.34	17.1889
26.56	10.328
26.78	15.1571
27	53.211
27.22	305.694
27.44	31.6105
27.66	19.3106
27.88	97.1433
28.1	25.2288
28.32	29.5167
28.54	24.8476
28.76	3.30029
28.98	55.9006
29.2	23.3374
29.42	64.1204
29.64	66.6453
29.86	26.2337
30.08	10.7348
30.3	4.51623
30.52	6.93851
30.74	8.49733
30.96	10.1444
31.18	29.3167
31.4	14.4245
31.62	49.1589
31.84	44.9745
32.06	19.9502
32.28	14.8007
32.5	42.9616
32.72	1.29784
32.94	20.7457
33.16	0.938652
33.38	20.1937
33.6	21.7281
33.82	0.949837
34.04	13.4587
34.26	18.7902
34.48	8.13525
34.7	5.13361
34.92	25.6177
35.14	8.88505
35.36	18.1538
35.58	11.967
35.8	27.102
36.02	24.8983
36.24	31.4959
36.46	21.5194
36.68	20.8295
36.9	19.9219
37.12	22.8297
37.34	23.0429
37.56	1.13959
37.78	14.7022
38	5.28039
38.22	21.0794
38.44	2.63964
38.66	55.5439
38.88	30.1941
39.1	22.7439
39.32	17.1771
39.54	5.44426
39.76	24.467
39.98	2.97668
40.2	11.6231
40.42	11.181
40.64	17.6714
40.86	27.4068
41.08	18.9034
41.3	2.00379
41.52	30.0358
41.74	11.7433
41.96	16.0605
42.18	32.0493
42.4	4.81424
42.62	7.02278
42.84	7.66917
43.06	11.389
43.28	13.7497
43.5	1.16137
43.72	8.47145
43.94	12.9566
44.16	33.6715
44.38	21.6564
44.6	8.99792
44.82	15.3137
45.04	5.53365
45.26	9.6442
45.48	17.7179
45.7	6.37871
45.92	7.96143
46.14	6.66224
46.36	6.11983
46.58	7.06172
46.8	4.83443
47.02	10.1318
47.24	4.91579
47.46	11.7053
47.68	0.78455
47.9	11.8057
48.12	13.5611
48.34	33.3451
48.56	12.6788
48.78	9.20808
49	12.5924
49.22	16.0192
49.44	8.80013
49.66	8.8826
49.88	5.712
50.1	16.1327
50.32	9.70562
50.54	11.2261
50.76	6.55227
50.98	13.7846
51.2	18.9503
51.42	11.9974
51.64	5.34335
51.86	17.9647
52.08	16.0306
52.3	11.3045
52.52	10.5837
52.74	12.602
52.96	2.54336
53.18	6.81401
53.4	1.46957
53.62	7.81351
53.84	16.7395
54.06	12.6043
54.28	1.9064
54.5	11.0061
54.72	16.1755
54.94	1.66449
55.16	15.7002
55.38	1.9026
55.6	12.7974
55.82	10.1157
56.04	6.39053
56.26	11.4557
56.48	6.91173
56.7	15.4168
56.92	7.87917
57.14	12.2015
57.36	16.3602
57.58	20.1926
57.8	3.35029
58.02	12.1711
58.24	4.51555
58.46	9.1912
58.68	9.28656
58.9	15.4799
59.12	12.2462
59.34	12.2829
59.56	2.85217
59.78	10.366
60	6.60958
60.22	8.18895
60.44	6.59268
60.66	16.4514
60.88	9.73027
61.1	8.82535
61.32	4.39699
61.54	5.50001
61.76	3.7385
61.98	6.18009
62.2	8.34785
62.42	5.59434
62.64	5.34853
62.86	6.38973
63.08	14.5086
63.3	11.132
63.52	0.567081
63.74	10.9951
63.96	11.1402
64.18	9.22814
64.4	13.3149
64.62	12.4375
64.84	19.6098
65.06	1.69083
65.28	8.89383
65.5	2.86788
65.72	11.7059
65.94	11.56
66.16	8.69807
66.38	11.9382
66.6	13.12
66.82	11.3087
67.04	7.29343
67.26	3.6348
67.48	11.5784
67.7	7.50368
67.92	2.37056
68.14	10.3682
68.36	7.31262
68.58	0.945547
68.8	6.03755
69.02	5.71368
69.24	3.51738
69.46	7.68701
69.68	8.87174
69.9	3.06013
70.12	8.02102
70.34	8.03262
70.56	11.0564
70.78	7.2088
71	7.19894
71.22	5.11595
71.44	11.2528
71.66	11.3793
71.88	0.450815
72.1	8.22755
72.32	1.33426
72.54	13.7437
72.76	7.39465
72.98	11.6641
73.2	8.96067
73.42	5.13498
73.64	5.55164
73.86	17.6217
74.08	11.8737
74.3	7.6993
74.52	17.6678
74.74	17.3091
74.96	3.32018
75.18	11.6426
75.4	5.40923
75.62	4.38773
75.84	9.43843
76.06	5.11578
76.28	7.02815
76.5	9.13013
76.72	2.63714
76.94	10.5164
77.16	14.6429
77.38	4.42787
77.6	8.86782
77.82	7.08186
78.04	8.14957
78.26	11.1286
78.48	5.45637
78.7	9.96844
78.92	11.7529
79.14	8.7099
79.36	8.85375
79.58	0.342804
79.8	6.33169
80.02	1.45537
80.24	7.01671
80.46	6.86147
80.68	5.87833
80.9	20.6529
81.12	4.22002
81.34	23.4641
81.56	5.69605
81.78	17.4961
82	8.01055
82.22	3.78364
82.44	2.89364
82.66	5.7831
82.88	15.8093
83.1	2.05057
83.32	8.89399
83.54	4.11415
83.76	14.9376
83.98	13.7586
84.2	12.0562
84.42	17.3585
84.64	10.3368
84.86	14.1918
85.08	5.79056
85.3	8.00067
85.52	17.6737
85.74	8.11677
85.96	10.1317
86.18	2.17872
86.4	20.0392
86.62	3.90113
86.84	1.40015
87.06	10.8222
87.28	7.92
87.5	6.79485
87.72	11.6187
87.94	9.66647
88.16	6.7631
88.38	5.79043
88.6	0.876339
88.82	7.33061
89.04	8.61998
89.26	7.66078
89.48	8.24281
89.7	2.71292
89.92	8.97711
