Measurement: Powder, Xray Data XY Processed
Mineral: Mordenite
Rruff sample: R061118
Ideal chemistry: (Na_2_,Ca,K_2_)_4_(Al_8_Si_40_)O_96_28H_2_O
Locality: Chipman's Brook, Nova Scotia, Canada
Source: Michael Scott
Description: Water worn white pebbles
Diffraction sample description: Powder
Measured chemistry: (Na_5.47_Ca_0.29_K_2.01_)_Σ=7.77_(Al_8.06_Si_39.94_)O_96_·28H_2_O; H_2_O estimated by difference
Cell parameters: a: 18.0828(9) b: 20.490(1) c: 7.5215(4) alpha: 90 beta: 90 gamma: 90 volume: 2786.8(2) crystal system: orthorhombic
x	intensity
5	0
5.22	7.14448
5.44	9.62495
5.66	0.226484
5.88	35.1867
6.1	23.4683
6.32	73.4099
6.54	687.953
6.76	16.274
6.98	16.1787
7.2	5.53248
7.42	5.68258
7.64	15.8212
7.86	15.6037
8.08	11.4544
8.3	13.9198
8.52	44.7389
8.74	27.4279
8.96	20.1954
9.18	6.69356
9.4	3.51289
9.62	82.807
9.84	194.883
10.06	2.81204
10.28	19.6917
10.5	14.2134
10.72	0.011082
10.94	10.8221
11.16	3.60325
11.38	16.7959
11.6	17.0723
11.82	13.2695
12.04	12.5668
12.26	9.84988
12.48	9.52056
12.7	8.03593
12.92	0.405846
13.14	17.5191
13.36	63.4849
13.58	43.7527
13.8	174.522
14.02	32.0186
14.24	20.1365
14.46	2.88802
14.68	16.6278
14.9	8.10647
15.12	10.3185
15.34	205.043
15.56	23.1278
15.78	3.58271
16	12.1635
16.22	1.47441
16.44	0.414436
16.66	4.04847
16.88	6.81004
17.1	14.0213
17.32	23.6889
17.54	16.0286
17.76	22.0619
17.98	1.85861
18.2	16.4473
18.42	23.7564
18.64	8.31938
18.86	2.79257
19.08	6.05299
19.3	18.2477
19.52	30.1272
19.74	83.9717
19.96	22.5535
20.18	8.15768
20.4	5.00256
20.62	11.3659
20.84	17.203
21.06	1.31157
21.28	17.3534
21.5	62.2347
21.72	25.543
21.94	5.14556
22.16	113.707
22.38	30.3315
22.6	1.15667
22.82	6.98612
23.04	23.4917
23.26	34.5014
23.48	3.22404
23.7	62.1741
23.92	5.68108
24.14	13.0049
24.36	10.8743
24.58	21.8038
24.8	15.682
25.02	31.3262
25.24	44.4395
25.46	21.0803
25.68	327.731
25.9	11.377
26.12	50.8547
26.34	295.208
26.56	6.34417
26.78	3.3305
27	5.08976
27.22	23.2001
27.44	36.3309
27.66	193.096
27.88	337.57
28.1	26.6841
28.32	14.3043
28.54	0.136143
28.76	27.655
28.98	15.6238
29.2	6.28959
29.42	15.4873
29.64	3.30586
29.86	22.4892
30.08	3.57121
30.3	17.6822
30.52	15.0665
30.74	2.32985
30.96	114.797
31.18	18.265
31.4	14.8265
31.62	18.2194
31.84	12.0509
32.06	26.9456
32.28	2.67124
32.5	25.699
32.72	15.3998
32.94	12.9883
33.16	31.6525
33.38	11.4151
33.6	0.925571
33.82	10.1398
34.04	6.4704
34.26	5.83415
34.48	9.11067
34.7	0.16898
34.92	31.9289
35.14	27.6214
35.36	5.24213
35.58	49.6786
35.8	17.0402
36.02	18.6223
36.24	10.3911
36.46	17.6963
36.68	21.5478
36.9	32.8218
37.12	12.0165
37.34	7.37507
37.56	8.76033
37.78	5.11892
38	16.7477
38.22	6.85226
38.44	10.7535
38.66	16.16
38.88	14.5071
39.1	9.69124
39.32	14.9212
39.54	9.15796
39.76	8.27652
39.98	3.48052
40.2	0.342323
40.42	24.3766
40.64	9.44226
40.86	6.59641
41.08	8.44355
41.3	9.71877
41.52	20.2378
41.74	14.6507
41.96	13.6921
42.18	13.8478
42.4	14.09
42.62	7.6434
42.84	14.5336
43.06	3.52318
43.28	11.2855
43.5	7.1345
43.72	7.17246
43.94	5.36578
44.16	40.6413
44.38	8.57102
44.6	18.8672
44.82	3.97001
45.04	18.1228
45.26	3.103
45.48	21.2008
45.7	15.8562
45.92	4.27416
46.14	11.3699
46.36	24.904
46.58	45.114
46.8	25.901
47.02	9.58649
47.24	16.5337
47.46	15.9661
47.68	7.46379
47.9	3.33706
48.12	11.5699
48.34	41.3455
48.56	10.4424
48.78	5.14931
49	4.00024
49.22	18.9523
49.44	12.8587
49.66	5.32005
49.88	3.7005
50.1	6.14684
50.32	18.0731
50.54	26.9698
50.76	15.9126
50.98	21.3453
51.2	10.6898
51.42	3.29152
51.64	15.7281
51.86	0.062706
52.08	1.75922
52.3	9.27595
52.52	3.763
52.74	2.85426
52.96	14.4999
53.18	7.35068
53.4	18.6604
53.62	2.02883
53.84	4.86975
54.06	1.83425
54.28	10.6745
54.5	8.70389
54.72	10.2394
54.94	0.1833
55.16	17.2129
55.38	13.5229
55.6	10.9271
55.82	9.3181
56.04	12.146
56.26	6.6879
56.48	1.0282
56.7	27.2459
56.92	5.58294
57.14	11.9936
57.36	9.20434
57.58	7.80605
57.8	14.0986
58.02	4.12833
58.24	12.8714
58.46	1.97622
58.68	1.55198
58.9	10.4281
59.12	9.46116
59.34	0.219999
59.56	10.5118
59.78	12.361
60	0.431763
60.22	7.16606
60.44	14.8983
60.66	17.8209
60.88	4.93145
61.1	12.4239
61.32	10.9964
61.54	2.61646
61.76	10.7093
61.98	11.3554
62.2	0.143444
62.42	19.4512
62.64	4.58847
62.86	10.2551
63.08	14.3629
63.3	5.33783
63.52	15.1458
63.74	22.7908
63.96	7.61368
64.18	17.0534
64.4	29.7374
64.62	2.50662
64.84	17.7779
65.06	2.86598
65.28	0.197792
65.5	5.84509
65.72	14.6809
65.94	11.5342
66.16	16.4779
66.38	1.22647
66.6	5.75696
66.82	16.8689
67.04	5.69857
67.26	7.70714
67.48	9.69539
67.7	2.79331
67.92	17.7154
68.14	14.2298
68.36	12.5035
68.58	10.8096
68.8	2.21257
69.02	9.96548
69.24	7.1829
69.46	13.6417
69.68	6.37556
69.9	3.52245
70.12	4.89921
70.34	15.5873
70.56	4.54416
70.78	7.40806
71	12.2763
71.22	16.3752
71.44	8.97569
71.66	7.92402
71.88	15.7814
72.1	6.75584
72.32	6.6678
72.54	13.1426
72.76	9.09466
72.98	15.9979
73.2	3.59046
73.42	6.38753
73.64	7.32878
73.86	8.53665
74.08	15.7887
74.3	9.23062
74.52	7.11153
74.74	15.9812
74.96	8.4281
75.18	15.5668
75.4	8.65628
75.62	3.42815
75.84	4.47107
76.06	7.97239
76.28	7.11562
76.5	8.98936
76.72	9.77704
76.94	4.5616
77.16	3.8923
77.38	4.56064
77.6	11.5331
77.82	9.58128
78.04	8.47383
78.26	6.49967
78.48	8.99403
78.7	11.8989
78.92	12.8061
79.14	3.81998
79.36	17.0116
79.58	2.74131
79.8	6.67373
80.02	3.91587
80.24	9.09718
80.46	2.14921
80.68	4.89297
80.9	3.06395
81.12	12.9914
81.34	5.1306
81.56	7.29631
81.78	14.1812
82	3.26586
82.22	8.34452
82.44	5.70026
82.66	7.85057
82.88	3.30643
83.1	0.844625
83.32	10.9685
83.54	2.02589
83.76	5.98214
83.98	1.90665
84.2	8.56881
84.42	10.6114
84.64	6.44071
84.86	5.09428
85.08	5.80717
85.3	4.92908
85.52	1.42035
85.74	3.48043
85.96	6.51335
86.18	12.6934
86.4	2.78701
86.62	3.5938
86.84	18.6594
87.06	11.8017
87.28	0.944176
87.5	0.843575
87.72	10.0048
87.94	1.37836
88.16	15.4216
88.38	7.8405
88.6	4.78248
88.82	10.6629
89.04	9.49695
89.26	2.69765
89.48	4.91547
89.7	12.6384
89.92	5.70844
