Measurement: Powder, Xray Data XY Processed
Mineral: Mottramite
Rruff sample: R050517
Ideal chemistry: Pb^2+^Cu^2+^V^5+^O_4_(OH)
Locality: Tsumeb mine, Tsumeb, Otavi District, Oshikoto, Namibia
Source: University of Arizona Mineral Museum
Description: Coating of green prismatic crystals
Diffraction sample description: Powder
Measured chemistry: Pb_1.00_Cu_1.00_((V_0.88_As_0.12_)_Î£=1_O_4_)(OH)
Cell parameters: a: 7.7035(2) b: 6.0491(3) c: 9.2367(4) alpha: 90. beta: 90. gamma: 90. volume: 430.43(2) crystal system: orthorhombic
x	intensity
5	0
5.22	11.851
5.44	10.658
5.66	13.147
5.88	5.029
6.1	10.952
6.32	13.116
6.54	7.044
6.76	0.905
6.98	6.145
7.2	7.621
7.42	10.402
7.64	9.05
7.86	7.759
8.08	4.433
8.3	9.586
8.52	3.438
8.74	6.32
8.96	4.024
9.18	0.505
9.4	4.61
9.62	2.519
9.84	1.001
10.06	6.341
10.28	1.498
10.5	7.403
10.72	6.529
10.94	2.435
11.16	13.266
11.38	1.214
11.6	10.247
11.82	3.974
12.04	3.66
12.26	6.883
12.48	7.894
12.7	2.449
12.92	10.357
13.14	5.447
13.36	5.538
13.58	10.613
13.8	2.907
14.02	2.814
14.24	6.737
14.46	5.811
14.68	4.643
14.9	1.737
15.12	5.405
15.34	5.781
15.56	10.122
15.78	9.468
16	3.319
16.22	6.354
16.44	6.398
16.66	0.361
16.88	5.409
17.1	6.261
17.32	11.373
17.54	102.177
17.76	5.713
17.98	2.652
18.2	0.978
18.42	0.054
18.64	9.102
18.86	5.195
19.08	7.506
19.3	48.551
19.52	17.804
19.74	1.66
19.96	11.64
20.18	8.644
20.4	6.626
20.62	6.624
20.84	8.705
21.06	78.418
21.28	4.229
21.5	1.146
21.72	4.953
21.94	5.079
22.16	12.993
22.38	15.124
22.6	11.441
22.82	0.545
23.04	0.83
23.26	7.794
23.48	6.933
23.7	1.069
23.92	1.68
24.14	2.457
24.36	1.295
24.58	6.331
24.8	14.154
25.02	24.308
25.24	9.284
25.46	7.064
25.68	3.776
25.9	2.433
26.12	4.228
26.34	2.992
26.56	8.679
26.78	4.456
27	21.145
27.22	5.277
27.44	114.955
27.66	30.562
27.88	4.698
28.1	6.805
28.32	1.175
28.54	8.208
28.76	6.23
28.98	7.46
29.2	11.447
29.42	5.662
29.64	38.293
29.86	7.101
30.08	1.119
30.3	13.682
30.52	0.689
30.74	1.492
30.96	5.489
31.18	24.899
31.4	148.805
31.62	9.592
31.84	10.496
32.06	4.266
32.28	6.177
32.5	8.044
32.72	7.831
32.94	10.553
33.16	19.225
33.38	66.098
33.6	10.621
33.82	89.742
34.04	9.949
34.26	1.692
34.48	4.598
34.7	110.576
34.92	25.756
35.14	10.227
35.36	5.367
35.58	46.374
35.8	7.976
36.02	9.525
36.24	3.85
36.46	7.481
36.68	3.326
36.9	5.948
37.12	3.493
37.34	11.624
37.56	3.551
37.78	3.633
38	5.361
38.22	0.928
38.44	6.762
38.66	4.783
38.88	2.744
39.1	86.629
39.32	13.72
39.54	9.428
39.76	5.399
39.98	1.836
40.2	26.382
40.42	9.88
40.64	8.108
40.86	49.597
41.08	10.014
41.3	5.231
41.52	2.333
41.74	4.043
41.96	6.065
42.18	4.872
42.4	14.722
42.62	6.371
42.84	13.043
43.06	24.203
43.28	5.766
43.5	34.333
43.72	42.654
43.94	1.824
44.16	2.924
44.38	9.437
44.6	11.856
44.82	9.005
45.04	2.076
45.26	2.982
45.48	2.929
45.7	8.921
45.92	7.676
46.14	27.193
46.36	9.903
46.58	2.506
46.8	3.193
47.02	7.049
47.24	19.811
47.46	0.541
47.68	4.291
47.9	5.959
48.12	1.245
48.34	8.613
48.56	38.559
48.78	9.482
49	10.795
49.22	5.657
49.44	6.391
49.66	26.447
49.88	11.521
50.1	7.634
50.32	0.367
50.54	6.453
50.76	25.397
50.98	18.512
51.2	44.013
51.42	36.723
51.64	7.795
51.86	9.006
52.08	1.864
52.3	0.716
52.52	0.567
52.74	4.819
52.96	2.381
53.18	32.852
53.4	16.176
53.62	11.99
53.84	9.085
54.06	4.84
54.28	6.627
54.5	8.405
54.72	6.12
54.94	12.811
55.16	29.326
55.38	13.839
55.6	56.524
55.82	50.319
56.04	18.251
56.26	1.426
56.48	6.11
56.7	25.47
56.92	7.262
57.14	5.635
57.36	7.098
57.58	5.491
57.8	2.881
58.02	3.977
58.24	3.781
58.46	9.275
58.68	6.096
58.9	4.411
59.12	4.041
59.34	6.611
59.56	12.721
59.78	21.595
60	18.916
60.22	15.544
60.44	4.568
60.66	4.486
60.88	9.206
61.1	8.979
61.32	19.019
61.54	20.07
61.76	4.339
61.98	24.149
62.2	6.21
62.42	7.264
62.64	1.359
62.86	4.278
63.08	12.516
63.3	4.85
63.52	5.407
63.74	9.82
63.96	18.071
64.18	10.751
64.4	4.673
64.62	4.019
64.84	9.426
65.06	0.524
65.28	1.586
65.5	2.48
65.72	3.658
65.94	7.613
66.16	8.098
66.38	10.959
66.6	9.525
66.82	2.437
67.04	9.171
67.26	40.388
67.48	18.352
67.7	6.1
67.92	3.87
68.14	5.715
68.36	3.466
68.58	8.8
68.8	6.757
69.02	4.509
69.24	8.382
69.46	9.275
69.68	4.047
69.9	10.228
70.12	29.936
70.34	12.288
70.56	16.609
70.78	9.565
71	14.383
71.22	9.486
71.44	10.536
71.66	6.52
71.88	16.035
72.1	10.155
72.32	6.907
72.54	14.219
72.76	8.053
72.98	1.239
73.2	3.909
73.42	10.968
73.64	7.052
73.86	7.679
74.08	20.139
74.3	15.727
74.52	11.522
74.74	8.574
74.96	0.408
75.18	4.537
75.4	0.582
75.62	13.192
75.84	24.329
76.06	19.075
76.28	13.883
76.5	10.583
76.72	14.849
76.94	6.945
77.16	2.094
77.38	0.645
77.6	11.974
77.82	2.121
78.04	6.122
78.26	3.161
78.48	1.702
78.7	9.021
78.92	17.12
79.14	4.215
79.36	3.426
79.58	6.207
79.8	10.371
80.02	16.182
80.24	6.989
80.46	5.809
80.68	13.533
80.9	7.351
81.12	10.098
81.34	11.036
81.56	9.243
81.78	11.749
82	6.85
82.22	5.821
82.44	15.686
82.66	7.596
82.88	10.52
83.1	9.347
83.32	7.51
83.54	13.966
83.76	22.374
83.98	19.639
84.2	13.948
84.42	1.013
84.64	5.169
84.86	13.071
85.08	3.645
85.3	5.917
85.52	14.971
85.74	13.801
85.96	3.38
86.18	4.659
86.4	0.582
86.62	6.131
86.84	7.807
87.06	2.793
87.28	11.301
87.5	12.946
87.72	12.847
87.94	5.039
88.16	1.747
88.38	11.169
88.6	9.555
88.82	0.947
89.04	2.748
89.26	6.805
89.48	5.599
89.7	8.039
89.92	2.568
