Measurement: Powder, Xray Data XY Processed
Mineral: Murmanite
Rruff sample: R060886
Ideal chemistry: Na_2_Ti^4+^_2_Na_2_Ti^4+^_2_(Si_2_O_7_)_2_O_4_(H_2_O)_4_
Locality: Lovozero Massif, Kola Peninsula, Russia
Source: Bob Jenkins
Description: Lilac lamellar aggregate
Diffraction sample description: Powder, cell parameters are from single crystal
Cell parameters: a: 5.368(4) b: 7.100(5) c: 12.216(9) alpha: 92.65(3) beta: 107.42(3) gamma: 90.19(3) volume: 443.7(6) crystal system: triclinic
x	intensity
5	0
5.22	17.1733
5.44	18.6256
5.66	5.4026
5.88	3.85024
6.1	22.4923
6.32	24.83
6.54	27.1472
6.76	12.2899
6.98	23.9538
7.2	62.7756
7.42	76.3066
7.64	39.0808
7.86	9.86561
8.08	11.05
8.3	11.3697
8.52	2.97034
8.74	21.0584
8.96	28.4647
9.18	15.5364
9.4	21.7264
9.62	24.0884
9.84	17.0819
10.06	20.1183
10.28	25.8584
10.5	26.6618
10.72	10.8567
10.94	29.2211
11.16	15.6655
11.38	23.831
11.6	20.0347
11.82	14.4443
12.04	5.38306
12.26	24.9152
12.48	32.1707
12.7	29.145
12.92	9.3262
13.14	9.84695
13.36	35.6544
13.58	27.7469
13.8	15.0851
14.02	20.2652
14.24	8.33043
14.46	21.201
14.68	12.584
14.9	35.255
15.12	18.8441
15.34	42.5963
15.56	14.1761
15.78	19.2967
16	9.33488
16.22	19.3793
16.44	9.36335
16.66	14.5239
16.88	3.2756
17.1	19.0707
17.32	3.70769
17.54	5.70901
17.76	8.02816
17.98	15.7885
18.2	2.41392
18.42	17.3924
18.64	8.56665
18.86	20.7836
19.08	44.1444
19.3	17.6782
19.52	23.2953
19.74	13.297
19.96	20.3968
20.18	9.3853
20.4	19.2926
20.62	6.90017
20.84	30.4405
21.06	4.24791
21.28	4.1204
21.5	26.3935
21.72	7.22711
21.94	14.2025
22.16	1.81559
22.38	24.0418
22.6	11.5925
22.82	8.59535
23.04	27.4238
23.26	10.7456
23.48	7.16816
23.7	3.43018
23.92	11.6177
24.14	8.37766
24.36	2.87667
24.58	15.547
24.8	9.41316
25.02	15.5112
25.24	24.2297
25.46	14.3871
25.68	2.31638
25.9	13.6594
26.12	18.5048
26.34	6.29625
26.56	3.96938
26.78	10.4875
27	1.96198
27.22	12.5419
27.44	7.26645
27.66	20.9907
27.88	13.8176
28.1	20.9853
28.32	21.3947
28.54	23.9643
28.76	12.5057
28.98	14.9269
29.2	22.7215
29.42	1.269
29.64	23.9616
29.86	20.2642
30.08	4.79856
30.3	16.0653
30.52	23.9443
30.74	46.506
30.96	24.4795
31.18	23.9789
31.4	0.971741
31.62	11.2962
31.84	0.106956
32.06	7.10492
32.28	12.452
32.5	25.0037
32.72	1.4009
32.94	11.4596
33.16	26.6309
33.38	11.3176
33.6	2.59542
33.82	11.3278
34.04	20.1967
34.26	6.11608
34.48	9.31091
34.7	11.9201
34.92	21.4396
35.14	25.7856
35.36	8.84224
35.58	9.68095
35.8	19.5795
36.02	8.41764
36.24	7.0131
36.46	13.1015
36.68	13.5544
36.9	2.06522
37.12	2.94623
37.34	12.6133
37.56	11.8913
37.78	16.9284
38	5.11227
38.22	10.9465
38.44	24.2237
38.66	2.00151
38.88	3.74432
39.1	11.8511
39.32	19.3979
39.54	10.6859
39.76	14.4464
39.98	17.5016
40.2	11.6234
40.42	8.69668
40.64	12.8308
40.86	1.17798
41.08	14.0748
41.3	19.0152
41.52	7.93891
41.74	18.0153
41.96	9.66696
42.18	7.44038
42.4	9.46088
42.62	4.27475
42.84	9.33668
43.06	12.3184
43.28	10.8214
43.5	4.94531
43.72	4.58093
43.94	5.0325
44.16	15.8756
44.38	2.30285
44.6	16.5255
44.82	0.707058
45.04	20.1445
45.26	0.842766
45.48	1.61227
45.7	6.33046
45.92	13.312
46.14	2.40685
46.36	32.352
46.58	12.8816
46.8	7.27452
47.02	14.5203
47.24	20.0051
47.46	12.2388
47.68	9.73959
47.9	8.73879
48.12	15.836
48.34	0.71134
48.56	2.15691
48.78	15.0421
49	9.10192
49.22	6.18382
49.44	16.1623
49.66	1.48392
49.88	6.55452
50.1	1.98427
50.32	12.7877
50.54	13.7406
50.76	8.10687
50.98	8.15087
51.2	4.73965
51.42	13.9994
51.64	14.1996
51.86	6.5003
52.08	0.687729
52.3	4.68233
52.52	7.54939
52.74	8.72124
52.96	2.05679
53.18	5.18733
53.4	11.4006
53.62	5.29678
53.84	14.539
54.06	6.80104
54.28	2.71174
54.5	8.71222
54.72	6.66366
54.94	4.17543
55.16	6.18214
55.38	11.426
55.6	7.54598
55.82	9.68626
56.04	18.7449
56.26	12.9483
56.48	13.9968
56.7	2.09714
56.92	7.02668
57.14	10.0318
57.36	9.51442
57.58	17.6144
57.8	12.4479
58.02	24.8044
58.24	9.72097
58.46	3.70995
58.68	8.54978
58.9	14.1299
59.12	12.2603
59.34	10.788
59.56	6.0369
59.78	10.8292
60	7.82986
60.22	3.00794
60.44	7.10607
60.66	0.752291
60.88	8.33168
61.1	7.73257
61.32	0.685612
61.54	17.7776
61.76	2.54756
61.98	14.594
62.2	10.7065
62.42	4.11942
62.64	16.0236
62.86	8.33225
63.08	5.53516
63.3	10.7162
63.52	10.8545
63.74	7.11512
63.96	1.31023
64.18	13.6924
64.4	12.9168
64.62	3.18907
64.84	10.862
65.06	8.82777
65.28	2.47416
65.5	6.57278
65.72	6.42436
65.94	11.9665
66.16	8.54361
66.38	13.525
66.6	9.21682
66.82	6.99198
67.04	6.64912
67.26	4.76894
67.48	3.15878
67.7	6.66111
67.92	12.718
68.14	9.06907
68.36	4.51264
68.58	4.98166
68.8	4.096
69.02	6.69292
69.24	8.13999
69.46	17.571
69.68	5.7087
69.9	6.3901
70.12	6.25165
70.34	10.7537
70.56	16.6349
70.78	9.49411
71	12.1999
71.22	3.15868
71.44	5.66126
71.66	12.2743
71.88	8.33028
72.1	10.5651
72.32	10.7859
72.54	4.62362
72.76	16.8112
72.98	4.24099
73.2	4.48325
73.42	1.18386
73.64	7.71337
73.86	5.9601
74.08	8.53945
74.3	13.6691
74.52	11.0684
74.74	4.78125
74.96	14.1556
75.18	7.06251
75.4	3.83841
75.62	3.65439
75.84	11.5935
76.06	14.0689
76.28	2.08024
76.5	12.0407
76.72	8.18557
76.94	1.79968
77.16	6.62548
77.38	8.61832
77.6	10.8544
77.82	10.934
78.04	1.02722
78.26	3.01959
78.48	13.9581
78.7	13.8382
78.92	16.5047
79.14	12.6257
79.36	16.5219
79.58	10.6192
79.8	1.79505
80.02	2.70759
80.24	2.00196
80.46	8.38754
80.68	8.74392
80.9	11.2523
81.12	14.366
81.34	20.397
81.56	6.44671
81.78	5.61807
82	5.4389
82.22	13.2709
82.44	18.2838
82.66	7.88216
82.88	7.55243
83.1	2.17098
83.32	10.7457
83.54	10.8871
83.76	0.818014
83.98	20.1928
84.2	6.18922
84.42	7.33462
84.64	11.5176
84.86	12.94
85.08	2.38797
85.3	11.3845
85.52	7.60219
85.74	9.68865
85.96	7.45703
86.18	9.49137
86.4	11.7772
86.62	4.64506
86.84	6.52514
87.06	5.53666
87.28	2.21346
87.5	6.04019
87.72	6.20953
87.94	2.86518
88.16	3.04679
88.38	13.2721
88.6	5.6061
88.82	5.12389
89.04	11.4875
89.26	7.84503
89.48	15.2827
89.7	8.37388
89.92	13.1118
