Measurement: Powder, Xray Data XY Processed
Mineral: Muscovite
Rruff sample: R040124
Ideal chemistry: KAl_2_(Si_3_Al)O_10_(OH)_2_
Locality: Garnet Hill, Pennsylvania, USA
Source: Bob Downs
Description: Grayish green mica book
Diffraction sample description: Powder
Measured chemistry: (K_0.90_Na_0.07_)(Al_0.86_Fe_0.10_Mg_0.04_)_2_(Si_0.76_Al_0.24_)_4_O_10_((OH)_0.99_F_0.01_)_2_
Cell parameters: a: 5.202(2) b: 9.030(3) c: 20.060(2) alpha: 90. beta: 95.75(1) gamma: 90. volume: 937.7(4) crystal system: monoclinic
x	intensity
5	0
5.22	7.13
5.44	18.481
5.66	12.245
5.88	10.754
6.1	4.255
6.32	12.47
6.54	0.404
6.76	16.937
6.98	6.736
7.2	13.555
7.42	26.945
7.64	9.541
7.86	15.658
8.08	11.199
8.3	13.772
8.52	13.953
8.74	52.994
8.96	236.959
9.18	18.883
9.4	15.656
9.62	8.402
9.84	6.311
10.06	5.184
10.28	3.833
10.5	10.383
10.72	8.145
10.94	2.156
11.16	0.486
11.38	2.849
11.6	6.29
11.82	11.586
12.04	8.964
12.26	14.174
12.48	9.065
12.7	13.485
12.92	9.704
13.14	6.564
13.36	3.638
13.58	1.719
13.8	1.865
14.02	2.728
14.24	4.739
14.46	3.476
14.68	0.859
14.9	17.784
15.12	7.134
15.34	0.816
15.56	4.171
15.78	13.061
16	11.028
16.22	3.793
16.44	4.929
16.66	15.765
16.88	4.27
17.1	1.769
17.32	13.201
17.54	12.185
17.76	28.142
17.98	13.984
18.2	4.145
18.42	4.322
18.64	6.267
18.86	1.026
19.08	6.933
19.3	11.945
19.52	12.669
19.74	16.576
19.96	35.421
20.18	5.464
20.4	4.843
20.62	6.523
20.84	0.193
21.06	5.397
21.28	2.38
21.5	10.252
21.72	1.713
21.94	6.443
22.16	6.997
22.38	6.815
22.6	5.959
22.82	6.771
23.04	9.623
23.26	7.286
23.48	2.748
23.7	5.614
23.92	12.571
24.14	7.443
24.36	8.264
24.58	1.877
24.8	1.43
25.02	5.045
25.24	2.617
25.46	35.971
25.68	30.374
25.9	11.769
26.12	3.798
26.34	19.917
26.56	15.841
26.78	161.581
27	26.627
27.22	3.979
27.44	13.028
27.66	6.186
27.88	31.071
28.1	13.58
28.32	12.919
28.54	2.51
28.76	12.431
28.98	11.348
29.2	2.469
29.42	11.332
29.64	14.118
29.86	46.47
30.08	20.31
30.3	12.617
30.52	13.454
30.74	9.551
30.96	4.291
31.18	19.392
31.4	21.646
31.62	14.003
31.84	14.557
32.06	43.333
32.28	20.443
32.5	15.053
32.72	2.628
32.94	8.217
33.16	14.226
33.38	8.99
33.6	1.643
33.82	7.092
34.04	0.442
34.26	7.652
34.48	13.428
34.7	22.577
34.92	51.809
35.14	27.237
35.36	18.667
35.58	3.649
35.8	8.407
36.02	27.768
36.24	0.099
36.46	15.577
36.68	1.132
36.9	8.696
37.12	1.375
37.34	7.085
37.56	23.546
37.78	28.621
38	15.895
38.22	9.163
38.44	10.765
38.66	9.323
38.88	5.613
39.1	8.776
39.32	0.891
39.54	7.841
39.76	0.369
39.98	3.477
40.2	9.305
40.42	22.218
40.64	9.748
40.86	28.019
41.08	15.337
41.3	22.89
41.52	3.402
41.74	15.149
41.96	9.938
42.18	14.519
42.4	16.938
42.62	0.047
42.84	3.311
43.06	13.214
43.28	27.712
43.5	22.811
43.72	7.468
43.94	8.256
44.16	9.24
44.38	10.227
44.6	8.501
44.82	12.81
45.04	9.065
45.26	11.245
45.48	101.51
45.7	14.353
45.92	8.9
46.14	8.052
46.36	15.197
46.58	0.818
46.8	0.679
47.02	2.244
47.24	4.908
47.46	11.743
47.68	0.714
47.9	0.095
48.12	5.25
48.34	9.24
48.56	2.122
48.78	10.808
49	3.854
49.22	5.611
49.44	9.608
49.66	6.206
49.88	12.978
50.1	14.019
50.32	2.97
50.54	6.713
50.76	7.436
50.98	1.07
51.2	13.696
51.42	2.523
51.64	10.302
51.86	3.651
52.08	1.268
52.3	11.549
52.52	14.617
52.74	22.523
52.96	8.743
53.18	10.868
53.4	13.432
53.62	13.885
53.84	8.748
54.06	6.651
54.28	4.52
54.5	10.227
54.72	7.462
54.94	3.899
55.16	10.513
55.38	9.524
55.6	24.557
55.82	15.421
56.04	9.911
56.26	11.816
56.48	8.818
56.7	8.852
56.92	1.009
57.14	8.722
57.36	12.413
57.58	25.095
57.8	19.041
58.02	8.631
58.24	14.743
58.46	1.319
58.68	8.238
58.9	12.792
59.12	13.15
59.34	9.159
59.56	9.629
59.78	7.12
60	11.323
60.22	4.976
60.44	4.562
60.66	6.241
60.88	12.808
61.1	12.503
61.32	1.9
61.54	14.286
61.76	7.45
61.98	8.942
62.2	13.59
62.42	8.06
62.64	11.456
62.86	14.769
63.08	1.05
63.3	4.268
63.52	6.94
63.74	10.279
63.96	4.11
64.18	11.113
64.4	10.903
64.62	10.49
64.84	3.86
65.06	4.731
65.28	8.864
65.5	11.842
65.72	4.999
65.94	14.967
66.16	1.253
66.38	12.975
66.6	11.945
66.82	5.066
67.04	4.576
67.26	8.253
67.48	7.068
67.7	15.829
67.92	5.577
68.14	7.195
68.36	13.703
68.58	10.271
68.8	5.214
69.02	5.992
69.24	11.736
69.46	9.738
69.68	18.898
69.9	12.093
70.12	4.526
70.34	18.007
70.56	6.542
70.78	0.979
71	19.473
71.22	9.968
71.44	3.397
71.66	5.083
71.88	8.262
72.1	7.3
72.32	7.368
72.54	9.203
72.76	11.016
72.98	7.883
73.2	8.031
73.42	7.93
73.64	7.657
73.86	0.718
74.08	3.647
74.3	7.207
74.52	7.396
74.74	9.389
74.96	2.617
75.18	1.628
75.4	9.327
75.62	0.961
75.84	9.149
76.06	3.062
76.28	9.824
76.5	16.498
76.72	8.199
76.94	6.173
77.16	6.591
77.38	2.909
77.6	3.044
77.82	9.569
78.04	12.79
78.26	11.645
78.48	9.936
78.7	10.259
78.92	6.465
79.14	4.355
79.36	8.533
79.58	9.221
79.8	12.012
80.02	6.031
80.24	4.773
80.46	7.987
80.68	1.165
80.9	12.294
81.12	5.425
81.34	1.439
81.56	8.453
81.78	1.384
82	12.384
82.22	10.242
82.44	10.211
82.66	7.252
82.88	4.087
83.1	17.093
83.32	10.993
83.54	1.014
83.76	1.077
83.98	2.344
84.2	8.479
84.42	4.828
84.64	12.888
84.86	2.92
85.08	6.056
85.3	5.041
85.52	7.779
85.74	0.701
85.96	7.334
86.18	11.223
86.4	4.859
86.62	6.269
86.84	7.394
87.06	4.467
87.28	5.472
87.5	5.329
87.72	6.496
87.94	0.667
88.16	6.802
88.38	8.32
88.6	5.556
88.82	2.572
89.04	13.628
89.26	10.908
89.48	4.035
89.7	2.303
89.92	7.542
