Measurement: Powder, Xray Data XY Processed
Mineral: Muscovite
Rruff sample: R060182
Ideal chemistry: KAl_2_(Si_3_Al)O_10_(OH)_2_
Locality: Reliance mine, Mica Mountain, Tete Juane Cache, British Columbia, Canada
Source: Lloyd Twaites
Description: Pale-yellow transparent mica, polytype 2M1
Diffraction sample description: Powder
Measured chemistry: (K_0.91_Na_0.09_)(Al_0.93_Fe^3+^_0.05_Mg_0.02_)_2_(Si_3.04_Al_0.96_)O_10_(OH)_2_
Cell parameters: a: 5.190(2) b: 9.018(2) c: 20.055(2) alpha: 90 beta: 95.76(1) gamma: 90 volume: 933.9(0) crystal system: monoclinic
x	intensity
5	0
5.22	2.217
5.44	19.084
5.66	1.489
5.88	2.631
6.1	8.617
6.32	15.096
6.54	7.741
6.76	4.39
6.98	3.384
7.2	4.93
7.42	15.137
7.64	0.362
7.86	8.12
8.08	8.288
8.3	10.215
8.52	11.621
8.74	88.184
8.96	634
9.18	25.337
9.4	14.053
9.62	2.92
9.84	0.203
10.06	9.66
10.28	8.594
10.5	2.634
10.72	11.121
10.94	2.517
11.16	5.04
11.38	0.647
11.6	2.883
11.82	6.171
12.04	4.147
12.26	3.085
12.48	13.185
12.7	5.115
12.92	12.981
13.14	1.106
13.36	0.107
13.58	7.019
13.8	3.008
14.02	4.178
14.24	9.461
14.46	2.713
14.68	7.808
14.9	4.704
15.12	0.959
15.34	2.593
15.56	10.588
15.78	1.674
16	4.419
16.22	11.235
16.44	3.796
16.66	1.302
16.88	0.088
17.1	12.662
17.32	15.732
17.54	8.6
17.76	73.559
17.98	20.694
18.2	5.002
18.42	8.246
18.64	5.298
18.86	5.366
19.08	9.442
19.3	4.534
19.52	6.535
19.74	9.306
19.96	32.088
20.18	9.298
20.4	7.426
20.62	2.075
20.84	6.253
21.06	0.248
21.28	9.911
21.5	7.103
21.72	17.301
21.94	6.396
22.16	1.556
22.38	8.841
22.6	7.923
22.82	17.563
23.04	12.624
23.26	6.292
23.48	7.207
23.7	13.582
23.92	22.357
24.14	11.356
24.36	3.95
24.58	5.31
24.8	12.988
25.02	6.101
25.24	10.412
25.46	27.578
25.68	37.77
25.9	4.758
26.12	0.531
26.34	8.134
26.56	9.662
26.78	189.404
27	88.334
27.22	4.393
27.44	0.1
27.66	8.599
27.88	21.94
28.1	25.124
28.32	8.731
28.54	9.169
28.76	6.168
28.98	5.309
29.2	7.605
29.42	1.893
29.64	9.171
29.86	25.574
30.08	36.456
30.3	9.3
30.52	6.39
30.74	5.082
30.96	1.077
31.18	10.802
31.4	40.681
31.62	12.825
31.84	2.414
32.06	18.163
32.28	5.274
32.5	6.716
32.72	15.959
32.94	6.57
33.16	5.041
33.38	9.337
33.6	17.415
33.82	1.404
34.04	8.494
34.26	1.071
34.48	6.648
34.7	17.408
34.92	10.944
35.14	67.192
35.36	28.559
35.58	11.135
35.8	0.515
36.02	34.678
36.24	3.807
36.46	16.129
36.68	3.39
36.9	2.603
37.12	11.849
37.34	12.287
37.56	11.338
37.78	23.854
38	18.74
38.22	8.07
38.44	5.393
38.66	0.206
38.88	6.227
39.1	1.605
39.32	3.756
39.54	8.167
39.76	10.017
39.98	8.937
40.2	17.732
40.42	13.345
40.64	4.031
40.86	10.383
41.08	11.872
41.3	12.474
41.52	7.97
41.74	8.824
41.96	10.453
42.18	7.111
42.4	13.729
42.62	10.551
42.84	1.038
43.06	2.842
43.28	11.831
43.5	25.028
43.72	11.316
43.94	2.413
44.16	16.083
44.38	1.917
44.6	5.013
44.82	2.848
45.04	0.703
45.26	13.51
45.48	185.511
45.7	40.856
45.92	3.482
46.14	1.206
46.36	8.673
46.58	13.286
46.8	4.875
47.02	1.436
47.24	9.18
47.46	4.672
47.68	5.062
47.9	3.488
48.12	3.848
48.34	7.668
48.56	6.767
48.78	8.551
49	3.377
49.22	7.755
49.44	4.936
49.66	3.941
49.88	3.981
50.1	7.545
50.32	3.481
50.54	4.462
50.76	2.269
50.98	0.85
51.2	9.921
51.42	3.702
51.64	5.418
51.86	0.967
52.08	12.703
52.3	3.451
52.52	13.308
52.74	16.098
52.96	10.209
53.18	1.168
53.4	5.146
53.62	4.625
53.84	0.715
54.06	1.36
54.28	6.527
54.5	3.401
54.72	4.046
54.94	3.447
55.16	15.184
55.38	2.948
55.6	4.9
55.82	14.529
56.04	16.09
56.26	6.95
56.48	5.984
56.7	10.076
56.92	4.185
57.14	8.599
57.36	21.924
57.58	27.684
57.8	15.746
58.02	12.901
58.24	9.262
58.46	12.558
58.68	4.021
58.9	2.232
59.12	0.291
59.34	10.943
59.56	12.831
59.78	0.212
60	6.291
60.22	1.039
60.44	5.27
60.66	2.114
60.88	14.03
61.1	7.768
61.32	7.783
61.54	16.502
61.76	9.781
61.98	5.072
62.2	2.364
62.42	2.597
62.64	8.726
62.86	1.513
63.08	2.61
63.3	0.304
63.52	0.861
63.74	2.054
63.96	9.133
64.18	9.645
64.4	13.205
64.62	0.162
64.84	12.528
65.06	4.412
65.28	5.24
65.5	23.117
65.72	4.352
65.94	4.074
66.16	2.093
66.38	6.263
66.6	8.573
66.82	4.341
67.04	4.687
67.26	3.781
67.48	1.288
67.7	3.874
67.92	11.939
68.14	11.814
68.36	0.251
68.58	8.315
68.8	10.853
69.02	2.319
69.24	11.758
69.46	7.971
69.68	17.055
69.9	2.417
70.12	8.577
70.34	8.836
70.56	4.834
70.78	3.378
71	5.613
71.22	9.016
71.44	1.617
71.66	7.568
71.88	1.487
72.1	9.392
72.32	10.295
72.54	4.232
72.76	9.141
72.98	5.958
73.2	0.082
73.42	3.962
73.64	6.467
73.86	6.619
74.08	1.982
74.3	10.535
74.52	4.948
74.74	7.048
74.96	3.154
75.18	11.124
75.4	4.106
75.62	1.898
75.84	7.021
76.06	8.029
76.28	15.965
76.5	7.538
76.72	8.917
76.94	12.035
77.16	8.013
77.38	5.113
77.6	0.628
77.82	7.546
78.04	0.878
78.26	5.924
78.48	8.059
78.7	4.119
78.92	8.134
79.14	13.062
79.36	4.807
79.58	7.747
79.8	2.919
80.02	2.607
80.24	1.59
80.46	11.601
80.68	0.362
80.9	11.543
81.12	10.688
81.34	4.008
81.56	2.497
81.78	8.636
82	3.75
82.22	4.573
82.44	7.694
82.66	2.739
82.88	0.249
83.1	6.712
83.32	4.846
83.54	6.724
83.76	6.505
83.98	6.316
84.2	3.285
84.42	3.299
84.64	1.761
84.86	10.886
85.08	4.714
85.3	14.837
85.52	3.89
85.74	2.631
85.96	1.537
86.18	14.56
86.4	15.435
86.62	3.391
86.84	7.623
87.06	7.064
87.28	8.904
87.5	9.904
87.72	3.73
87.94	4.664
88.16	12.649
88.38	3.713
88.6	5.757
88.82	6.882
89.04	6.752
89.26	4.963
89.48	2.266
89.7	6.142
89.92	14.433
