Measurement: Powder, Xray Data XY Processed
Mineral: Nahcolite
Rruff sample: R070237
Ideal chemistry: NaHCO_3_
Locality: Bureau of Mines Oil Shale Mine, East Rifle Creek area, Garfield County, Colorado, USA
Source: Michael Scott
Description: Clear, colorless to brownish, massive
Diffraction sample description: Powder
Measured chemistry: Na_1.00_HCO_3_ ; H and C not analyzed but assumed by stoichiometry
Cell parameters: a: 3.4798(2) b: 9.6817(3) c: 8.0537(6) alpha: 90 beta: 112.144(4) gamma: 90 volume: 251.32(2) crystal system: monoclinic
x	intensity
5	0
5.22	4.17741
5.44	6.90055
5.66	13.9867
5.88	1.60338
6.1	2.89234
6.32	20.9783
6.54	11.8742
6.76	20.1352
6.98	4.95143
7.2	16.9501
7.42	10.29
7.64	8.35433
7.86	14.2188
8.08	12.6287
8.3	6.7728
8.52	9.06149
8.74	3.68218
8.96	14.6021
9.18	1.74435
9.4	11.8882
9.62	13.4006
9.84	13.2568
10.06	0.480911
10.28	23.4585
10.5	19.4492
10.72	19.0638
10.94	17.469
11.16	5.18208
11.38	1.34148
11.6	28.5236
11.82	7.47241
12.04	22.2674
12.26	8.19218
12.48	4.95069
12.7	11.2827
12.92	13.9773
13.14	16.9449
13.36	34.0471
13.58	18.3387
13.8	19.7078
14.02	6.99808
14.24	7.30839
14.46	16.7651
14.68	16.1744
14.9	27.5616
15.12	18.93
15.34	6.35454
15.56	18.7353
15.78	21.2003
16	17.6937
16.22	15.6571
16.44	18.8309
16.66	14.0375
16.88	43.2938
17.1	0.997917
17.32	14.0756
17.54	13.5452
17.76	19.7831
17.98	3.36509
18.2	1.78845
18.42	30.7263
18.64	12.8625
18.86	10.0722
19.08	26.4748
19.3	2.59095
19.52	8.1912
19.74	10.9034
19.96	10.6285
20.18	17.631
20.4	22.6922
20.62	13.0725
20.84	0.94376
21.06	0.121426
21.28	1.10187
21.5	3.03213
21.72	16.0678
21.94	21.4684
22.16	20.8558
22.38	22.0279
22.6	15.8816
22.82	2.5977
23.04	23.886
23.26	9.9838
23.48	2.64782
23.7	13.6972
23.92	24.0622
24.14	0.509727
24.36	13.3564
24.58	8.08837
24.8	4.04398
25.02	2.90863
25.24	12.8348
25.46	30.8685
25.68	88.0354
25.9	28.0253
26.12	17.4454
26.34	9.75381
26.56	21.2888
26.78	1.6642
27	11.2905
27.22	76.8203
27.44	68.9864
27.66	63.1082
27.88	13.4583
28.1	9.97943
28.32	6.64969
28.54	14.5907
28.76	22.1795
28.98	564.735
29.2	256.18
29.42	22.8652
29.64	1.19825
29.86	13.3598
30.08	82.1952
30.3	457.765
30.52	1486.81
30.74	50.8218
30.96	34.087
31.18	17.9338
31.4	12.2291
31.62	12.1389
31.84	26.32
32.06	4.90141
32.28	23.0943
32.5	29.8102
32.72	8.07001
32.94	9.30091
33.16	10.4943
33.38	138.119
33.6	25.1156
33.82	10.7848
34.04	2.38498
34.26	61.3844
34.48	2210.12
34.7	136.195
34.92	24.2574
35.14	25.3323
35.36	3.458
35.58	2.54373
35.8	10.3436
36.02	6.18457
36.24	2.35771
36.46	8.63936
36.68	14.811
36.9	36.8911
37.12	13.8773
37.34	17.9003
37.56	19.389
37.78	15.8416
38	8.69664
38.22	12.7043
38.44	3.3603
38.66	2.90493
38.88	20.5117
39.1	76.8301
39.32	11.5834
39.54	8.99802
39.76	5.59561
39.98	16.3673
40.2	9.37402
40.42	18.6607
40.64	50.6699
40.86	168.046
41.08	18.6511
41.3	10.2265
41.52	17.2292
41.74	0.617886
41.96	4.11187
42.18	2.65333
42.4	3.62408
42.62	16.8978
42.84	2.92481
43.06	23.947
43.28	6.07
43.5	5.16882
43.72	7.08863
43.94	5.77733
44.16	22.8373
44.38	51.7096
44.6	123.494
44.82	23.4375
45.04	9.20184
45.26	9.45932
45.48	14.505
45.7	47.5345
45.92	27.4294
46.14	128.107
46.36	24.563
46.58	11.6974
46.8	21.0232
47.02	44.425
47.24	2.77516
47.46	7.47643
47.68	59.2504
47.9	104.164
48.12	11.3681
48.34	0.216606
48.56	46.8526
48.78	7.11752
49	6.11753
49.22	8.13998
49.44	11.0148
49.66	9.45785
49.88	21.3938
50.1	25.9297
50.32	3.07617
50.54	17.9791
50.76	2.27517
50.98	8.3267
51.2	11.1721
51.42	26.1886
51.64	15.2241
51.86	5.93441
52.08	7.91662
52.3	7.88326
52.52	32.9236
52.74	59.397
52.96	18.4603
53.18	4.30156
53.4	9.66473
53.62	6.94068
53.84	3.32986
54.06	8.39855
54.28	29.3496
54.5	20.4354
54.72	0.360281
54.94	0.389694
55.16	13.9719
55.38	24.0531
55.6	4.79603
55.82	7.93804
56.04	18.7989
56.26	24.7467
56.48	7.40095
56.7	6.68401
56.92	18.7175
57.14	27.8997
57.36	8.21444
57.58	5.78963
57.8	11.0335
58.02	19.2062
58.24	37.9978
58.46	30.5744
58.68	21.6998
58.9	13.7198
59.12	0.773064
59.34	3.69371
59.56	10.5914
59.78	18.4578
60	18.0915
60.22	11.8252
60.44	11.1033
60.66	27.0027
60.88	131.212
61.1	29.2312
61.32	6.22092
61.54	11.5069
61.76	2.93555
61.98	8.45759
62.2	10.8818
62.42	2.2708
62.64	9.61718
62.86	14.145
63.08	12.6661
63.3	24.4388
63.52	13.489
63.74	2.94779
63.96	11.6993
64.18	0.134077
64.4	3.18727
64.62	10.4468
64.84	14.6023
65.06	5.53082
65.28	5.61421
65.5	21.752
65.72	1.78708
65.94	0.963881
66.16	10.7581
66.38	14.5323
66.6	9.60184
66.82	19.8653
67.04	13.3615
67.26	9.45091
67.48	4.38808
67.7	6.46121
67.92	15.6024
68.14	9.46501
68.36	3.26297
68.58	12.4486
68.8	0.399376
69.02	8.05331
69.24	10.4525
69.46	10.368
69.68	4.55497
69.9	8.83757
70.12	13.7135
70.34	4.23937
70.56	16.5733
70.78	6.18213
71	4.69518
71.22	0.675653
71.44	6.18381
71.66	3.2759
71.88	14.4741
72.1	8.53598
72.32	7.56724
72.54	4.5126
72.76	23.2464
72.98	14.3631
73.2	8.34245
73.42	1.342
73.64	5.09818
73.86	1.07231
74.08	5.10943
74.3	9.08209
74.52	7.99977
74.74	5.09094
74.96	11.1427
75.18	3.21718
75.4	7.05983
75.62	4.99047
75.84	4.1716
76.06	0.162386
76.28	4.87397
76.5	14.0336
76.72	5.26674
76.94	8.50971
77.16	9.37245
77.38	6.1982
77.6	13.5114
77.82	0.469746
78.04	5.41616
78.26	11.0989
78.48	4.42175
78.7	8.63345
78.92	7.4948
79.14	3.82738
79.36	9.58167
79.58	15.8045
79.8	10.9442
80.02	6.71632
80.24	11.7387
80.46	9.01906
80.68	3.1378
80.9	11.3699
81.12	3.29697
81.34	13.8991
81.56	9.8941
81.78	5.00477
82	7.97364
82.22	0.985067
82.44	11.1502
82.66	3.24083
82.88	10.9666
83.1	7.87103
83.32	2.0509
83.54	15.959
83.76	11.4114
83.98	0.927799
84.2	12.9904
84.42	3.99748
84.64	3.08779
84.86	12.0261
85.08	18.9672
85.3	15
85.52	7.73252
85.74	0.778028
85.96	14.1869
86.18	6.30331
86.4	5.32475
86.62	8.46663
86.84	1.67849
87.06	13.1134
87.28	7.12371
87.5	6.30855
87.72	8.44306
87.94	10.6702
88.16	9.77069
88.38	9.58601
88.6	4.10574
88.82	10.5058
89.04	7.58554
89.26	14.0303
89.48	9.58667
89.7	16.6035
89.92	0.734855
