Measurement: Powder, Xray Data XY Processed
Mineral: Nakauriite
Rruff sample: R060842
Ideal chemistry: Cu^2+^_8_(S^6+^O_4_)_4_(CO_3_)(OH)_6_48H_2_O
Locality: Gabbs, Nevada, USA
Source: Bob Jenkins
Description: Spray of blue fibers
Diffraction sample description: Powder, using Mo radiation
x	intensity
5.4	0
5.52	34.1081
5.64	35.3271
5.76	21.386
5.88	6.90813
6	5.14381
6.12	6.05783
6.24	19.3187
6.36	29.9393
6.48	60.1763
6.6	55.6136
6.72	78.8254
6.84	112.917
6.96	118.121
7.08	155.883
7.2	170.559
7.32	145.062
7.44	141.601
7.56	158.36
7.68	148
7.8	201.319
7.92	271.202
8.04	294.81
8.16	271.787
8.28	312.224
8.4	335.254
8.52	313.777
8.64	276.616
8.76	238.253
8.88	201.321
9	224.568
9.12	219.255
9.24	208.803
9.36	163.569
9.48	100.681
9.6	69.2844
9.72	95.1942
9.84	66.1893
9.96	58.209
10.08	70.3845
10.2	105.864
10.32	144.514
10.44	136.133
10.56	84.3173
10.68	37.9005
10.8	35.3944
10.92	53.1355
11.04	98.12
11.16	140.056
11.28	177.502
11.4	226.881
11.52	246.34
11.64	214.959
11.76	108.251
11.88	34.4194
12	18.8184
12.12	31.8139
12.24	72.9205
12.36	97.9558
12.48	81.5674
12.6	36.535
12.72	7.04982
12.84	9.68654
12.96	1.82211
13.08	28.2688
13.2	25.4703
13.32	21.1497
13.44	4.32439
13.56	4.03587
13.68	2.33551
13.8	2.88286
13.92	13.5086
14.04	18.6091
14.16	37.4973
14.28	43.5733
14.4	51.2214
14.52	44.0744
14.64	11.1356
14.76	0.180135
14.88	9.9573
15	24.4112
15.12	40.3554
15.24	52.5022
15.36	75.6852
15.48	99.1657
15.6	109.808
15.72	111.278
15.84	80.5485
15.96	41.9804
16.08	0.267569
16.2	5.76456
16.32	10.7631
16.44	9.46505
16.56	4.39898
16.68	32.4024
16.8	110.152
16.92	274.51
17.04	461.427
17.16	655.845
17.28	694.783
17.4	618.443
17.52	476.238
17.64	290.453
17.76	153.753
17.88	113.897
18	114.077
18.12	132.217
18.24	138.953
18.36	106.666
18.48	69.8609
18.6	40.2419
18.72	24.3396
18.84	22.9025
18.96	14.5706
19.08	4.95312
19.2	0.675329
19.32	2.56412
19.44	1.63904
19.56	2.13032
19.68	6.16333
19.8	9.38887
19.92	6.59237
20.04	0.982221
20.16	3.7693
20.28	0.37555
20.4	1.30492
20.52	0.877924
20.64	11.4657
20.76	11.0627
20.88	18.932
21	22.7777
21.12	66.4187
21.24	199.348
21.36	360.22
21.48	388.363
21.6	254.047
21.72	124.01
21.84	54.9818
21.96	36.0172
22.08	20.3722
22.2	13.5756
22.32	15.4025
22.44	26.6939
22.56	31.2476
22.68	41.7028
22.8	43.1529
22.92	39.1069
23.04	27.7461
23.16	21.7163
23.28	2.8482
23.4	0.106918
23.52	7.42675
23.64	27.9595
23.76	71.9869
23.88	76.6785
24	46.2304
24.12	15.2017
24.24	2.03497
24.36	3.6767
24.48	1.86302
24.6	30.0581
24.72	48.181
24.84	93.2047
24.96	122.551
25.08	107.992
25.2	63.3954
25.32	13.9346
25.44	5.64601
25.56	1.6956
25.68	17.7219
25.8	6.32117
25.92	12.0318
26.04	7.51346
26.16	21.8407
26.28	58.6159
26.4	122.399
26.52	194.605
26.64	229.911
26.76	183.089
26.88	104.909
27	67.6571
27.12	47.069
27.24	42.047
27.36	15.2616
27.48	4.59201
27.6	0.609521
27.72	4.10506
27.84	10.2459
27.96	29.0811
28.08	66.3694
28.2	103.805
28.32	108.153
28.44	69.5556
28.56	24.8269
28.68	17.1295
28.8	24.3817
28.92	34.0424
29.04	39.1237
29.16	34.1874
29.28	35.3248
29.4	44.3203
29.52	25.9246
29.64	15.1397
29.76	3.69899
29.88	0.510374
30	4.53414
30.12	1.29594
30.24	5.72518
30.36	18.2071
30.48	21.3854
30.6	11.9882
30.72	0.795901
30.84	1.95483
30.96	3.96232
31.08	6.77217
31.2	6.79325
31.32	13.3043
31.44	28.2263
31.56	40.5744
31.68	64.0768
31.8	78.8445
31.92	82.7072
32.04	80.0405
32.16	57.2129
32.28	43.6981
32.4	29.6723
32.52	12.3146
32.64	3.73865
32.76	2.34234
32.88	2.48914
33	2.79788
33.12	6.39979
33.24	18.3138
33.36	13.3047
33.48	11.6092
33.6	9.64731
33.72	8.34775
33.84	13.3999
33.96	22.6448
34.08	29.3395
34.2	38.0524
34.32	38.3025
34.44	37.2002
34.56	33.3489
34.68	24.7382
34.8	12.5682
34.92	1.16998
35.04	2.02637
35.16	3.35797
35.28	2.22012
35.4	3.78455
35.52	1.71415
35.64	2.08236
35.76	0.737375
35.88	3.19574
36	4.23028
36.12	0.966715
36.24	6.89639
36.36	8.21155
36.48	11.4388
36.6	2.75666
36.72	0.569788
36.84	1.02045
36.96	5.00321
37.08	5.18592
37.2	10.5237
37.32	14.6181
37.44	13.0679
37.56	12.4245
37.68	9.59876
37.8	12.6437
37.92	12.6861
38.04	12.7542
38.16	0.365416
38.28	2.91305
38.4	0.133723
38.52	1.00163
38.64	5.43839
38.76	14.2096
38.88	15.6683
39	17.6715
39.12	25.0617
39.24	18.2765
39.36	18.1079
39.48	22.4773
39.6	16.998
39.72	17.9579
39.84	18.7345
39.96	20.479
40.08	14.3655
40.2	12.5536
40.32	6.08362
40.44	0.394109
40.56	8.17915
40.68	0.065451
40.8	2.83824
40.92	3.25104
41.04	1.529
41.16	0.26937
41.28	6.29891
41.4	1.49966
41.52	9.40175
41.64	10.9161
41.76	20.8667
41.88	18.5401
42	25.5937
42.12	27.8971
42.24	17.9688
42.36	11.7203
42.48	1.47445
42.6	2.68416
42.72	0.06241
42.84	1.31701
42.96	1.78018
43.08	6.65071
43.2	13.3453
43.32	8.46152
43.44	15.7308
43.56	15.6191
43.68	24.1135
43.8	30.612
43.92	27.2843
44.04	17.9003
44.16	5.83451
44.28	10.2326
44.4	9.21951
44.52	6.83287
44.64	1.49511
44.76	4.76499
44.88	0.902816
45	3.17269
45.12	5.11582
45.24	12.0571
45.36	18.7375
45.48	3.37919
45.6	6.22393
45.72	12.1355
45.84	18.1712
45.96	19.0833
46.08	16.4637
46.2	7.89073
46.32	8.91827
46.44	14.4499
46.56	0.39925
46.68	12.0616
46.8	1.22739
46.92	0
