Measurement: Powder, Xray Data XY Processed
Mineral: Narsarsukite
Rruff sample: R060217
Ideal chemistry: Na_2_(Ti^4+^,Fe^3+^)Si_4_(O,F)_11_
Locality: Mont Saint-Hilaire, Rouville County, Quebec, Canada
Source: Royal Ontario Museum
Description: Tan to green tetragonal prisms
Diffraction sample description: Powder
Cell parameters: a: 10.7165(2) b: 10.7165(2) c: 7.9504(5) alpha: 90 beta: 90 gamma: 90 volume: 913.05(6) crystal system: tetragonal
x	intensity
5	0
5.22	14.454
5.44	13.302
5.66	7.934
5.88	8.642
6.1	0.648
6.32	18.004
6.54	25.278
6.76	10.128
6.98	8.872
7.2	4.744
7.42	6.522
7.64	8.293
7.86	0.036
8.08	15.747
8.3	12.375
8.52	3.029
8.74	12.191
8.96	1.794
9.18	8.086
9.4	2.394
9.62	8.913
9.84	4.157
10.06	13.168
10.28	8.244
10.5	11.184
10.72	4.039
10.94	15.858
11.16	4.871
11.38	8.908
11.6	8.099
11.82	8.298
12.04	4.494
12.26	5.651
12.48	8.811
12.7	5.028
12.92	4.35
13.14	5.854
13.36	8.171
13.58	14.437
13.8	11.398
14.02	11.422
14.24	3.331
14.46	2.382
14.68	6.404
14.9	13.222
15.12	10.051
15.34	6.766
15.56	10.167
15.78	1.823
16	1.555
16.22	6.503
16.44	29.719
16.66	83.486
16.88	11.641
17.1	13.41
17.32	4.785
17.54	13.972
17.76	9.157
17.98	5.418
18.2	2.571
18.42	7.653
18.64	1.265
18.86	1.565
19.08	1.838
19.3	0.932
19.52	6.107
19.74	6.147
19.96	7.583
20.18	1.403
20.4	2.607
20.62	1.452
20.84	5.361
21.06	6.114
21.28	7.691
21.5	3.12
21.72	55.582
21.94	5.547
22.16	19.111
22.38	46.4
22.6	5.912
22.82	5.775
23.04	2.745
23.26	0.625
23.48	158.301
23.7	12.422
23.92	7.343
24.14	10.44
24.36	29.314
24.58	7.167
24.8	10.36
25.02	3.213
25.24	6.889
25.46	7.521
25.68	2.265
25.9	3.818
26.12	5.226
26.34	549.038
26.56	24.494
26.78	1.218
27	5.902
27.22	6.749
27.44	172.925
27.66	14.586
27.88	41.367
28.1	20.655
28.32	19.722
28.54	11.383
28.76	5.786
28.98	1.777
29.2	5.463
29.42	1.676
29.64	1.853
29.86	6.835
30.08	10.903
30.3	3.663
30.52	9.729
30.74	3.632
30.96	10.62
31.18	6.077
31.4	2.651
31.62	17.467
31.84	5.866
32.06	9.154
32.28	1.043
32.5	6.925
32.72	16.257
32.94	4.811
33.16	16.053
33.38	14.305
33.6	8.701
33.82	12.156
34.04	6.879
34.26	6.325
34.48	1.836
34.7	17.475
34.92	66.206
35.14	15.68
35.36	18.683
35.58	261.839
35.8	15.442
36.02	4.609
36.24	8.224
36.46	1.515
36.68	3.181
36.9	8.57
37.12	9.267
37.34	5.916
37.56	57.079
37.78	18.133
38	6.98
38.22	11.614
38.44	7.698
38.66	7.687
38.88	33.73
39.1	15.615
39.32	13.659
39.54	6.384
39.76	0.758
39.98	10.416
40.2	6.387
40.42	0.411
40.64	13.956
40.86	1.641
41.08	3.402
41.3	12.357
41.52	5.228
41.74	11.298
41.96	5.14
42.18	7.595
42.4	9.661
42.62	4.471
42.84	3.254
43.06	62.037
43.28	0.576
43.5	0.575
43.72	13.448
43.94	7.67
44.16	28.617
44.38	6.262
44.6	2.412
44.82	6.363
45.04	6.552
45.26	4.945
45.48	6.23
45.7	12.59
45.92	26.569
46.14	8.491
46.36	3.949
46.58	4.888
46.8	1.229
47.02	19.616
47.24	27.586
47.46	0.279
47.68	7.595
47.9	3.287
48.12	27.832
48.34	1.836
48.56	3.24
48.78	1.565
49	17.258
49.22	10.538
49.44	0.916
49.66	4.778
49.88	6.522
50.1	17.3
50.32	2.51
50.54	7.669
50.76	3.999
50.98	10.306
51.2	61.164
51.42	9.584
51.64	9.473
51.86	3.2
52.08	9.34
52.3	1.715
52.52	8.101
52.74	8.827
52.96	7.603
53.18	13.071
53.4	43.767
53.62	12.224
53.84	9.608
54.06	21.452
54.28	42.777
54.5	1.818
54.72	0.607
54.94	12.861
55.16	19.16
55.38	10.574
55.6	7.941
55.82	1.042
56.04	3.892
56.26	0.526
56.48	12.685
56.7	6.461
56.92	10.113
57.14	4.205
57.36	4.278
57.58	6.991
57.8	10.777
58.02	11.609
58.24	6.411
58.46	1.539
58.68	4.431
58.9	20.437
59.12	23.814
59.34	16.853
59.56	12.905
59.78	11.365
60	0.531
60.22	1.424
60.44	14.687
60.66	12.72
60.88	10.816
61.1	29.56
61.32	40.519
61.54	6.072
61.76	10.163
61.98	2.468
62.2	5.475
62.42	17.337
62.64	17.217
62.86	16.138
63.08	8.982
63.3	7.736
63.52	12.722
63.74	6.653
63.96	1.48
64.18	11.147
64.4	13.03
64.62	8.231
64.84	4.164
65.06	6.058
65.28	4.878
65.5	1.172
65.72	1.106
65.94	10.965
66.16	17.803
66.38	39.835
66.6	22.783
66.82	9.308
67.04	14.022
67.26	41.371
67.48	11.602
67.7	0.896
67.92	2.867
68.14	8.173
68.36	6.351
68.58	11.591
68.8	12.936
69.02	4.281
69.24	5.31
69.46	7.462
69.68	12.308
69.9	2.266
70.12	11.144
70.34	5.157
70.56	8.18
70.78	0.166
71	21.926
71.22	31.791
71.44	4.716
71.66	10.445
71.88	6.422
72.1	0.463
72.32	2.796
72.54	0.838
72.76	13.798
72.98	12.028
73.2	2.017
73.42	11.211
73.64	2.278
73.86	9.221
74.08	7.452
74.3	9.432
74.52	7.558
74.74	11.722
74.96	12.094
75.18	5.062
75.4	9.616
75.62	4.588
75.84	8.533
76.06	2.482
76.28	5.012
76.5	9.87
76.72	13.271
76.94	13.371
77.16	8.06
77.38	11.797
77.6	9.254
77.82	3.449
78.04	3.871
78.26	10.119
78.48	5.262
78.7	8.41
78.92	1.663
79.14	0.396
79.36	5.353
79.58	8.308
79.8	8
80.02	6.739
80.24	0.745
80.46	2.214
80.68	9.958
80.9	6.841
81.12	11.765
81.34	1.673
81.56	16.525
81.78	15.842
82	0.945
82.22	5.298
82.44	5.609
82.66	3.769
82.88	1.915
83.1	13.168
83.32	17.451
83.54	5.412
83.76	3.154
83.98	8.082
84.2	9.855
84.42	8.662
84.64	4.211
84.86	4.851
85.08	5.718
85.3	2.635
85.52	5.206
85.74	5.412
85.96	6.905
86.18	16.067
86.4	11.29
86.62	13.411
86.84	8.012
87.06	1.73
87.28	12.585
87.5	7.855
87.72	7.112
87.94	11.782
88.16	2.725
88.38	6.654
88.6	1.491
88.82	2.019
89.04	10.767
89.26	6.707
89.48	5.463
89.7	3.577
89.92	4.038
