Measurement: Powder, Xray Data XY Processed
Mineral: Natrolite
Rruff sample: R060561
Ideal chemistry: Na_2_(Si_3_Al_2_)O_10_2H_2_O
Locality: California, USA
Source: Gemological Institute of America
Description: White fragment
Diffraction sample description: Powder
Measured chemistry: Na_2.00_(Si_3.00_Al_2.00_)O_10_Â·2H_2_O
Cell parameters: a: 18.2914(2) b: 18.6450(5) c: 6.5845(2) alpha: 90. beta: 90. gamma: 90. volume: 2245.63(6) crystal system: orthorhombic
x	intensity
5	0
5.22	11.3071
5.44	7.77168
5.66	8.28073
5.88	14.3152
6.1	7.7407
6.32	22.6771
6.54	10.066
6.76	3.28867
6.98	11.1125
7.2	2.57293
7.42	8.57579
7.64	5.65098
7.86	8.94338
8.08	13.0823
8.3	4.56268
8.52	4.35187
8.74	8.05531
8.96	3.90519
9.18	9.62298
9.4	10.3121
9.62	1.30867
9.84	3.87103
10.06	6.36232
10.28	2.53731
10.5	7.84124
10.72	6.84153
10.94	8.19852
11.16	16.1896
11.38	3.28774
11.6	7.34203
11.82	7.38846
12.04	2.4499
12.26	12.2608
12.48	0.964093
12.7	6.86917
12.92	3.80923
13.14	7.82083
13.36	10.053
13.58	383.077
13.8	19.9514
14.02	2.95481
14.24	3.00349
14.46	7.02653
14.68	1.17818
14.9	8.30081
15.12	419.88
15.34	13.2903
15.56	6.09673
15.78	6.93806
16	10.4027
16.22	3.86569
16.44	8.0259
16.66	6.28143
16.88	9.54129
17.1	2.6178
17.32	2.60193
17.54	8.24929
17.76	1.2733
17.98	6.07171
18.2	8.74699
18.42	6.22833
18.64	4.13687
18.86	7.65062
19.08	243.31
19.3	10.9004
19.52	65.558
19.74	3.58242
19.96	0.158995
20.18	17.9078
20.4	104.901
20.62	13.9802
20.84	2.24222
21.06	2.30878
21.28	4.59011
21.5	119.316
21.72	117.715
21.94	3.90758
22.16	4.39635
22.38	2.79175
22.6	2.33803
22.82	5.98024
23.04	7.19794
23.26	5.34102
23.48	7.49069
23.7	1.16844
23.92	3.06758
24.14	7.87901
24.36	4.91189
24.58	9.69829
24.8	0.573544
25.02	1.68392
25.24	3.68385
25.46	5.90954
25.68	1.81395
25.9	6.78449
26.12	1.7442
26.34	3.53292
26.56	5.81185
26.78	6.42934
27	4.10793
27.22	4.56377
27.44	40.0892
27.66	3.38277
27.88	14.9101
28.1	23.6002
28.32	163.584
28.54	12.9843
28.76	31.8668
28.98	5.66302
29.2	6.55004
29.42	2.4009
29.64	3.71242
29.86	0.010866
30.08	5.7318
30.3	13.3575
30.52	83.9643
30.74	1.53972
30.96	31.8854
31.18	35.7944
31.4	47.6405
31.62	57.8285
31.84	7.51571
32.06	4.86017
32.28	2.36455
32.5	6.09111
32.72	7.71748
32.94	5.22242
33.16	6.96679
33.38	3.18707
33.6	8.2622
33.82	8.39894
34.04	5.48218
34.26	4.11363
34.48	6.05053
34.7	9.95448
34.92	51.2292
35.14	11.0361
35.36	2.13952
35.58	3.81032
35.8	0.766601
36.02	6.85587
36.24	0.91678
36.46	7.15644
36.68	18.502
36.9	5.73986
37.12	0.230167
37.34	97.5816
37.56	9.52096
37.78	11.2042
38	7.03701
38.22	0.897263
38.44	4.52825
38.66	38.1988
38.88	26.6379
39.1	2.15404
39.32	7.66096
39.54	32.1963
39.76	0.034269
39.98	12.0838
40.2	4.05042
40.42	7.03195
40.64	20.0011
40.86	0.408391
41.08	5.99483
41.3	32.2899
41.52	93.525
41.74	9.90623
41.96	4.44917
42.18	1.85277
42.4	2.89365
42.62	2.07065
42.84	3.30939
43.06	3.37642
43.28	0.976713
43.5	2.85055
43.72	12.8216
43.94	8.61815
44.16	29.4949
44.38	4.22262
44.6	3.35206
44.82	7.44225
45.04	3.57314
45.26	0.552733
45.48	7.70153
45.7	8.04087
45.92	11.1171
46.14	2.512
46.36	14.7012
46.58	1.80479
46.8	8.84337
47.02	5.92068
47.24	3.86448
47.46	3.72032
47.68	3.80992
47.9	7.73098
48.12	2.58587
48.34	10.4124
48.56	19.0432
48.78	15.7108
49	9.74797
49.22	1.52738
49.44	5.32603
49.66	9.24321
49.88	15.1893
50.1	16.2135
50.32	7.23435
50.54	52.2781
50.76	15.6675
50.98	29.547
51.2	7.47935
51.42	0.355212
51.64	5.20309
51.86	0.137393
52.08	36.0569
52.3	4.00493
52.52	28.9883
52.74	9.8304
52.96	9.60836
53.18	46.8212
53.4	7.04092
53.62	4.16317
53.84	52.4946
54.06	9.92056
54.28	5.74213
54.5	3.99476
54.72	4.98882
54.94	4.58905
55.16	4.44393
55.38	3.1555
55.6	2.54295
55.82	17.0092
56.04	5.56137
56.26	26.8812
56.48	12.149
56.7	20.1686
56.92	30.04
57.14	1.15241
57.36	32.4969
57.58	8.52025
57.8	15.7797
58.02	6.10822
58.24	9.79939
58.46	0.495491
58.68	16.3162
58.9	7.77404
59.12	5.18939
59.34	5.32913
59.56	4.42472
59.78	2.34417
60	4.60444
60.22	12.9483
60.44	6.18809
60.66	13.0864
60.88	3.72673
61.1	3.5783
61.32	10.9656
61.54	0.978777
61.76	6.17156
61.98	6.15533
62.2	6.11796
62.42	2.8072
62.64	7.51822
62.86	1.56458
63.08	1.28564
63.3	10.0622
63.52	3.77251
63.74	7.45603
63.96	4.29428
64.18	6.9326
64.4	13.8397
64.62	8.83381
64.84	4.99348
65.06	9.31832
65.28	4.2662
65.5	6.39986
65.72	4.66272
65.94	24.7592
66.16	8.85601
66.38	6.9029
66.6	2.94486
66.82	1.03463
67.04	3.90047
67.26	2.9383
67.48	2.71444
67.7	12.7428
67.92	4.15578
68.14	11.3338
68.36	0.720224
68.58	17.7852
68.8	5.24482
69.02	10.3374
69.24	7.34874
69.46	1.40671
69.68	2.21614
69.9	10.0775
70.12	7.89722
70.34	6.25683
70.56	8.96418
70.78	15.7764
71	14.3936
71.22	5.84711
71.44	4.68862
71.66	2.39204
71.88	8.50355
72.1	8.73381
72.32	13.9684
72.54	10.1258
72.76	4.34154
72.98	2.12148
73.2	9.23411
73.42	2.43177
73.64	5.721
73.86	3.1747
74.08	7.39312
74.3	11.3249
74.52	2.69271
74.74	3.76014
74.96	2.2721
75.18	14.5256
75.4	8.73717
75.62	2.93911
75.84	0.119766
76.06	0.16345
76.28	1.06925
76.5	5.53928
76.72	6.44525
76.94	16.5419
77.16	16.4417
77.38	2.95289
77.6	4.65801
77.82	4.42771
78.04	4.44129
78.26	9.49463
78.48	26.1861
78.7	25.1727
78.92	4.59484
79.14	1.39574
79.36	0.001734
79.58	19.806
79.8	11.6166
80.02	0.759687
80.24	9.91653
80.46	16.632
80.68	3.31312
80.9	5.35213
81.12	0.206353
81.34	4.35409
81.56	9.61949
81.78	8.72306
82	13.3184
82.22	5.5051
82.44	4.38318
82.66	0.487238
82.88	1.60661
83.1	0.11146
83.32	3.18618
83.54	10.2042
83.76	1.21559
83.98	3.04548
84.2	6.06845
84.42	0.669777
84.64	3.84469
84.86	4.98912
85.08	13.0019
85.3	5.02064
85.52	0.6904
85.74	4.71939
85.96	11.1288
86.18	4.1051
86.4	11.3991
86.62	8.48881
86.84	4.53983
87.06	11.5036
87.28	3.54002
87.5	6.41867
87.72	5.69321
87.94	6.85379
88.16	4.09344
88.38	5.93905
88.6	4.25613
88.82	1.21198
89.04	5.52487
89.26	6.69996
89.48	3.80712
89.7	7.06547
89.92	9.36401
