Measurement: Powder, Xray Data XY Processed
Mineral: Natrolite
Rruff sample: R050589
Ideal chemistry: Na_2_(Si_3_Al_2_)O_10_2H_2_O
Locality: Mont Saint-Hilaire, Rouville County, Quebec, Canada
Source: Bob Downs
Description: White to colorless prismatic crystals associated with aegirine
Diffraction sample description: Powder
Measured chemistry: Na_2.00_(Si_3.00_Al_2.00_)O_10_Â·2H_2_O
Cell parameters: a: 18.2951(3) b: 18.6259(4) c: 6.5862(3) alpha: 90. beta: 90. gamma: 90. volume: 2244.36(7) crystal system: orthorhombic
x	intensity
5	0
5.22	12.365
5.44	6.998
5.66	17.392
5.88	9.451
6.1	17.802
6.32	2.716
6.54	14.908
6.76	4.719
6.98	13.319
7.2	10.413
7.42	6.745
7.64	3.082
7.86	1.491
8.08	11.017
8.3	5.43
8.52	10.833
8.74	4.121
8.96	5.126
9.18	2.921
9.4	11.772
9.62	3.837
9.84	13.033
10.06	7.961
10.28	3.01
10.5	6.004
10.72	10.522
10.94	1.185
11.16	4.95
11.38	10.804
11.6	3.475
11.82	5.189
12.04	4.918
12.26	22.404
12.48	8.936
12.7	8.375
12.92	6.055
13.14	6.044
13.36	12.65
13.58	742.454
13.8	8.037
14.02	5.659
14.24	7.126
14.46	13.676
14.68	11.584
14.9	21.429
15.12	380.611
15.34	13.09
15.56	11.574
15.78	14.674
16	7.181
16.22	7.406
16.44	0.807
16.66	1.659
16.88	4.979
17.1	5.088
17.32	7.141
17.54	4.268
17.76	3.208
17.98	7.578
18.2	21.54
18.42	21.538
18.64	2.29
18.86	16.046
19.08	233.141
19.3	16.594
19.52	21.226
19.74	9.443
19.96	1.814
20.18	33.962
20.4	233.952
20.62	1.241
20.84	6.99
21.06	0.728
21.28	10.291
21.5	120.15
21.72	91.882
21.94	9.676
22.16	2.775
22.38	10.666
22.6	1.66
22.82	12.281
23.04	7.66
23.26	4.964
23.48	11.076
23.7	4.252
23.92	3.953
24.14	2.653
24.36	5.586
24.58	13.156
24.8	11.911
25.02	7.711
25.24	21.193
25.46	13.106
25.68	4.643
25.9	13.376
26.12	11.635
26.34	3.597
26.56	16.961
26.78	1.147
27	0.99
27.22	7.01
27.44	8.128
27.66	1.851
27.88	39.479
28.1	27.168
28.32	302.427
28.54	9.173
28.76	103.074
28.98	11.469
29.2	6.3
29.42	1.039
29.64	7.81
29.86	3.526
30.08	7.247
30.3	22.557
30.52	48.804
30.74	0.139
30.96	28.27
31.18	61.406
31.4	81.734
31.62	22.049
31.84	11.629
32.06	1.958
32.28	7.005
32.5	6.796
32.72	1.44
32.94	10.494
33.16	9.898
33.38	7.591
33.6	1.744
33.82	11.128
34.04	5.36
34.26	7.543
34.48	0.973
34.7	14.191
34.92	71.515
35.14	12.129
35.36	8.766
35.58	9.846
35.8	7.636
36.02	10.832
36.24	4.996
36.46	3.179
36.68	21.406
36.9	6.136
37.12	8.577
37.34	108.152
37.56	15.543
37.78	4.835
38	4.861
38.22	0.255
38.44	0.526
38.66	36.158
38.88	20.699
39.1	3.398
39.32	0.948
39.54	2.793
39.76	3.85
39.98	21.058
40.2	11.059
40.42	21.814
40.64	11.792
40.86	8.422
41.08	11.486
41.3	21.823
41.52	75.138
41.74	13.646
41.96	19.374
42.18	16.635
42.4	9.582
42.62	0.223
42.84	2.903
43.06	11.188
43.28	9.835
43.5	18.362
43.72	7.732
43.94	3.771
44.16	7.537
44.38	22.468
44.6	11.594
44.82	11.753
45.04	0.041
45.26	0.089
45.48	0.394
45.7	16.232
45.92	7.356
46.14	15.665
46.36	4.72
46.58	9.248
46.8	14.655
47.02	18.079
47.24	13.084
47.46	6.21
47.68	14.227
47.9	3.355
48.12	8.015
48.34	12.747
48.56	16.393
48.78	4.664
49	3.388
49.22	12.181
49.44	4.04
49.66	3.135
49.88	8.121
50.1	21.192
50.32	1.212
50.54	10.086
50.76	20.96
50.98	36.244
51.2	7.971
51.42	13.932
51.64	13.579
51.86	6.551
52.08	45.448
52.3	13.658
52.52	26.622
52.74	5.677
52.96	7.756
53.18	30.695
53.4	8.088
53.62	9.413
53.84	51.734
54.06	2.141
54.28	5.633
54.5	5.1
54.72	10.075
54.94	6.194
55.16	1.218
55.38	9.044
55.6	1.146
55.82	22.665
56.04	3.714
56.26	5.899
56.48	13.42
56.7	26.886
56.92	14.982
57.14	5.063
57.36	15.75
57.58	21.771
57.8	5.233
58.02	12.513
58.24	8.932
58.46	6.434
58.68	10.17
58.9	6.582
59.12	7.732
59.34	6.395
59.56	6.657
59.78	0.164
60	0.911
60.22	2
60.44	9.416
60.66	18.424
60.88	2.337
61.1	2.893
61.32	1.985
61.54	2.001
61.76	14.253
61.98	12.457
62.2	4.389
62.42	17.185
62.64	3.06
62.86	6.836
63.08	0.382
63.3	4.301
63.52	11.715
63.74	2.701
63.96	5.781
64.18	6.619
64.4	8.133
64.62	11.553
64.84	8.736
65.06	7.969
65.28	7.92
65.5	3.135
65.72	0.622
65.94	19.773
66.16	11.997
66.38	3.922
66.6	3.556
66.82	4.265
67.04	8.079
67.26	9.105
67.48	7.23
67.7	14.321
67.92	18.39
68.14	4.575
68.36	13.043
68.58	4.044
68.8	11.123
69.02	8.186
69.24	2.02
69.46	3.893
69.68	1.059
69.9	4.557
70.12	17.385
70.34	11.627
70.56	0.232
70.78	6.666
71	9.466
71.22	5.315
71.44	9.161
71.66	2.212
71.88	17.43
72.1	2.761
72.32	18.008
72.54	5.311
72.76	16.015
72.98	5.456
73.2	11.424
73.42	0.325
73.64	4.928
73.86	5.297
74.08	13.43
74.3	10.055
74.52	11.197
74.74	2.389
74.96	6.613
75.18	10.344
75.4	13.338
75.62	7.475
75.84	13.601
76.06	0.962
76.28	10.273
76.5	7.366
76.72	15.354
76.94	9.247
77.16	2.035
77.38	0.631
77.6	0.608
77.82	4.964
78.04	1.006
78.26	5.919
78.48	22.373
78.7	2.966
78.92	5.155
79.14	2.001
79.36	5.124
79.58	8.032
79.8	1.006
80.02	5.397
80.24	14.483
80.46	7.125
80.68	7.239
80.9	9.372
81.12	8.47
81.34	6.131
81.56	1.51
81.78	0.46
82	15.632
82.22	10.693
82.44	4.115
82.66	2.235
82.88	10.72
83.1	12.957
83.32	8.158
83.54	9.043
83.76	0.259
83.98	6.963
84.2	4.792
84.42	0.93
84.64	7.677
84.86	2.709
85.08	0.822
85.3	4.722
85.52	10.742
85.74	1.462
85.96	0.519
86.18	0.59
86.4	8.663
86.62	4.895
86.84	4.823
87.06	0.01
87.28	7.189
87.5	13.332
87.72	6.616
87.94	6.641
88.16	10.876
88.38	8.138
88.6	4.617
88.82	1.462
89.04	2.652
89.26	5.848
89.48	3.963
89.7	5.283
89.92	3.104
