Measurement: Powder, Xray Data XY Processed
Mineral: Natrolite
Rruff sample: R040022
Ideal chemistry: Na_2_(Si_3_Al_2_)O_10_2H_2_O
Locality: Patterson, Passaic County, New Jersey, USA
Source: University of Arizona Mineral Museum
Description: White fine fibrous mass
Diffraction sample description: Powder
Measured chemistry: (Na_1.87_Ca_0.08_[box]_0.05_)_Σ=2_(Si_2.97_Al_2.03_)O_10_·1.95H_2_O; H_2_O estimated by difference
Cell parameters: a: 18.2955(6) b: 18.6353(6) c: 6.5813(6) alpha: 90. beta: 90. gamma: 90. volume: 2243.8(2) crystal system: orthorhombic
x	intensity
5	0
5.22	11.689
5.44	5.229
5.66	2.057
5.88	5.185
6.1	18.726
6.32	11.532
6.54	9.564
6.76	12.201
6.98	3.705
7.2	5.29
7.42	10.97
7.64	5.698
7.86	5.028
8.08	0.709
8.3	6.099
8.52	4.608
8.74	6.982
8.96	5.922
9.18	6.035
9.4	10.075
9.62	1.75
9.84	5.292
10.06	6.482
10.28	6.385
10.5	10.69
10.72	8.889
10.94	1.007
11.16	3.753
11.38	11.75
11.6	1.093
11.82	7.615
12.04	7.239
12.26	19.724
12.48	4.005
12.7	0.423
12.92	9.368
13.14	20.124
13.36	32.888
13.58	991.857
13.8	19.257
14.02	2.869
14.24	7.809
14.46	10.811
14.68	11.031
14.9	14.258
15.12	507.498
15.34	10.265
15.56	7.585
15.78	0.309
16	0.015
16.22	10.791
16.44	18.735
16.66	9.396
16.88	10.633
17.1	9.666
17.32	4.595
17.54	7.276
17.76	0.62
17.98	2.503
18.2	10.425
18.42	5.187
18.64	5.935
18.86	24.685
19.08	224.03
19.3	55.09
19.52	34.186
19.74	3.383
19.96	9.855
20.18	95.491
20.4	297.346
20.62	11.477
20.84	4.375
21.06	5.811
21.28	46.089
21.5	115.655
21.72	106.354
21.94	9.454
22.16	0.318
22.38	6.251
22.6	5.793
22.82	18.592
23.04	6.303
23.26	5.981
23.48	13.835
23.7	6.299
23.92	4.562
24.14	11.082
24.36	8.81
24.58	9.64
24.8	15.094
25.02	13.085
25.24	12.213
25.46	6.115
25.68	8.079
25.9	6.123
26.12	5.239
26.34	5.437
26.56	10.925
26.78	0.119
27	2.953
27.22	11.597
27.44	17.778
27.66	15.527
27.88	115.508
28.1	44.657
28.32	295.173
28.54	9.029
28.76	71.587
28.98	22.526
29.2	4.435
29.42	24.541
29.64	11.526
29.86	4.586
30.08	17.288
30.3	32.239
30.52	55.148
30.74	12.334
30.96	54.372
31.18	256.363
31.4	228.08
31.62	44.146
31.84	13.332
32.06	6.436
32.28	6.479
32.5	0.57
32.72	13.757
32.94	2.63
33.16	8.971
33.38	20.066
33.6	5.077
33.82	9.09
34.04	10.874
34.26	8.714
34.48	4.952
34.7	8.81
34.92	63.129
35.14	19.267
35.36	6.348
35.58	0.505
35.8	5.427
36.02	3.683
36.24	5.914
36.46	7.241
36.68	43.907
36.9	23.384
37.12	18.856
37.34	89.775
37.56	21.587
37.78	2.467
38	6.901
38.22	9.676
38.44	3.33
38.66	40.947
38.88	21.422
39.1	5.251
39.32	12.243
39.54	5.42
39.76	14.48
39.98	32.335
40.2	7.331
40.42	0.09
40.64	14.195
40.86	12.475
41.08	34.379
41.3	20.246
41.52	78.975
41.74	12.647
41.96	1.705
42.18	5.698
42.4	4.075
42.62	2.484
42.84	16.81
43.06	11.98
43.28	0.916
43.5	3.047
43.72	5.985
43.94	8.86
44.16	21.274
44.38	13.492
44.6	5.541
44.82	4.713
45.04	3.579
45.26	8.666
45.48	3.245
45.7	6.275
45.92	10.009
46.14	12.933
46.36	15.206
46.58	2.741
46.8	0.637
47.02	11.52
47.24	4.174
47.46	8.862
47.68	7.52
47.9	1.644
48.12	1.943
48.34	26.521
48.56	19.149
48.78	17.562
49	0.204
49.22	2.694
49.44	12.171
49.66	8.139
49.88	30.152
50.1	9.76
50.32	3.661
50.54	24.509
50.76	40.361
50.98	24.356
51.2	0.412
51.42	2.734
51.64	7.724
51.86	0.607
52.08	11.414
52.3	4.542
52.52	15.955
52.74	14.309
52.96	29.327
53.18	34.245
53.4	7.39
53.62	9.572
53.84	20.004
54.06	1.955
54.28	2.675
54.5	6.534
54.72	5.371
54.94	5.326
55.16	10.244
55.38	6.76
55.6	0.806
55.82	17.551
56.04	1.017
56.26	16.777
56.48	17.581
56.7	15.792
56.92	5.917
57.14	2.758
57.36	12.895
57.58	9.066
57.8	4.459
58.02	18.129
58.24	2.201
58.46	12.469
58.68	13.778
58.9	15.815
59.12	12.538
59.34	0.191
59.56	6.569
59.78	10.227
60	6.692
60.22	9.936
60.44	12.039
60.66	8.955
60.88	5.409
61.1	7.259
61.32	18.305
61.54	4.206
61.76	8.454
61.98	2.326
62.2	3.983
62.42	15.659
62.64	2.471
62.86	15.335
63.08	11.008
63.3	21.618
63.52	21.035
63.74	26.227
63.96	16.249
64.18	9.541
64.4	8.724
64.62	1.005
64.84	1.282
65.06	4.575
65.28	2.01
65.5	5.746
65.72	0.078
65.94	11.063
66.16	8.22
66.38	9.152
66.6	4.712
66.82	7.603
67.04	10.524
67.26	0.634
67.48	10.604
67.7	8.118
67.92	6.109
68.14	6.639
68.36	11.882
68.58	15.857
68.8	6.135
69.02	12.253
69.24	3.56
69.46	2.775
69.68	4.509
69.9	7.324
70.12	4.211
70.34	1.701
70.56	1.893
70.78	4.345
71	3.898
71.22	1.564
71.44	4.3
71.66	0.02
71.88	14.85
72.1	9.973
72.32	7.091
72.54	8.565
72.76	6.127
72.98	4.54
73.2	10.938
73.42	11.313
73.64	0.887
73.86	9.342
74.08	1.021
74.3	14.196
74.52	3.561
74.74	12.353
74.96	14.443
75.18	1.455
75.4	7.508
75.62	0.712
75.84	6.203
76.06	0.287
76.28	13.245
76.5	6.936
76.72	6.913
76.94	3.361
77.16	2.797
77.38	3.462
77.6	2.134
77.82	3.834
78.04	4.6
78.26	7.281
78.48	15.208
78.7	16.998
78.92	9.187
79.14	11.946
79.36	3.857
79.58	7.81
79.8	8.781
80.02	10.878
80.24	5.89
80.46	15.766
80.68	10.641
80.9	6.709
81.12	0.744
81.34	5.598
81.56	6.19
81.78	9.516
82	0.745
82.22	4.548
82.44	12.696
82.66	2.915
82.88	10.2
83.1	6.035
83.32	2.13
83.54	7.201
83.76	6.258
83.98	3.927
84.2	0.112
84.42	12.817
84.64	6.909
84.86	4.042
85.08	4.229
85.3	3.346
85.52	10.518
85.74	2.649
85.96	0.844
86.18	6.14
86.4	4.789
86.62	3.855
86.84	5.007
87.06	1.128
87.28	5.419
87.5	3.804
87.72	11.133
87.94	4.544
88.16	0.843
88.38	8.053
88.6	7.138
88.82	7.9
89.04	5.141
89.26	0.448
89.48	4.148
89.7	3.562
89.92	7.948
