Measurement: Powder, Xray Data XY Processed
Mineral: Natrochalcite
Rruff sample: R050152
Ideal chemistry: NaCu^2+^_2_(S^6+^O_4_)_2_(OH)H_2_O
Locality: Fortuna mine, Baquedano, Chile
Source: Jim McGlasson
Description: Bright emerald green pyramidal crystals
Diffraction sample description: Single crystal, powder profile is calculated
Measured chemistry: Na_1.00_Cu_2.00_(S_1.00_O_4_)_2_(OH)Â·H_2_O
Cell parameters: a: 8.802(1) b: 6.181(1) c: 7.503(2) alpha: 90 beta: 118.71(2) gamma: 90 volume: 358.04(5) crystal system: monoclinic
x	intensity
5	0
5.22	0
5.44	0
5.66	0
5.88	0
6.1	0
6.32	0
6.54	0
6.76	0
6.98	0
7.2	0
7.42	0
7.64	0
7.86	0
8.08	0
8.3	0
8.52	0
8.74	0
8.96	0
9.18	0
9.4	0
9.62	0
9.84	0
10.06	0
10.28	0
10.5	0
10.72	0
10.94	0
11.16	0
11.38	0
11.6	0
11.82	0
12.04	0
12.26	0
12.48	0
12.7	0
12.92	0
13.14	0
13.36	0.72
13.58	0.036
13.8	0
14.02	0
14.24	0
14.46	0
14.68	0
14.9	0
15.12	0
15.34	0
15.56	0
15.78	0
16	0
16.22	0
16.44	0
16.66	0
16.88	0
17.1	0
17.32	0
17.54	0
17.76	0
17.98	0
18.2	0
18.42	17.453
18.64	0
18.86	0
19.08	0
19.3	2.985
19.52	0
19.74	0
19.96	0
20.18	0.001
20.4	3.084
20.62	0
20.84	0
21.06	0
21.28	0
21.5	0
21.72	0
21.94	0
22.16	0
22.38	0
22.6	0
22.82	0
23.04	15.598
23.26	0
23.48	0
23.7	0
23.92	0
24.14	0
24.36	0
24.58	0
24.8	0
25.02	0
25.24	0
25.46	0
25.68	0.4
25.9	6.571
26.12	0.009
26.34	0
26.56	0
26.78	0
27	0.177
27.22	0.119
27.44	0
27.66	0
27.88	23.154
28.1	0
28.32	0
28.54	0
28.76	0
28.98	0.011
29.2	0
29.42	0
29.64	0
29.86	0
30.08	0
30.3	0
30.52	0
30.74	0
30.96	0
31.18	0
31.4	0
31.62	0
31.84	0.01
32.06	44.925
32.28	0
32.5	0
32.72	0
32.94	0
33.16	0
33.38	0
33.6	0
33.82	0.014
34.04	6.673
34.26	0
34.48	0
34.7	0
34.92	0
35.14	0
35.36	0.42
35.58	39.224
35.8	0
36.02	2.248
36.24	0.071
36.46	0
36.68	0
36.9	0
37.12	0.004
37.34	4.565
37.56	0.205
37.78	0.144
38	0.059
38.22	0
38.44	0
38.66	0
38.88	0
39.1	23.557
39.32	0.001
39.54	0
39.76	0.163
39.98	6.343
40.2	0.017
40.42	0
40.64	0
40.86	0
41.08	2.19
41.3	1.496
41.52	0.001
41.74	0.014
41.96	2.266
42.18	0.001
42.4	0
42.62	0
42.84	0
43.06	0
43.28	0
43.5	0
43.72	0.056
43.94	4.025
44.16	0
44.38	0
44.6	0
44.82	0
45.04	0
45.26	0.796
45.48	0.059
45.7	0.031
45.92	0.545
46.14	0.053
46.36	0
46.58	0
46.8	6.586
47.02	5.661
47.24	0.405
47.46	0
47.68	0
47.9	0
48.12	0
48.34	0
48.56	0.003
48.78	0
49	0
49.22	0
49.44	1.007
49.66	0.001
49.88	0
50.1	0
50.32	0
50.54	2.723
50.76	0.709
50.98	4.283
51.2	4.139
51.42	0.006
51.64	0.634
51.86	3.404
52.08	0
52.3	0
52.52	0
52.74	0
52.96	7.76
53.18	1.747
53.4	5.018
53.62	0.025
53.84	0
54.06	0.017
54.28	0.075
54.5	6.094
54.72	8.344
54.94	0
55.16	0
55.38	0
55.6	0.538
55.82	7.559
56.04	1.844
56.26	2.992
56.48	0.002
56.7	0
56.92	0.274
57.14	0.137
57.36	1.411
57.58	1.33
57.8	0.003
58.02	0
58.24	0
58.46	0
58.68	0.005
58.9	0
59.12	0
59.34	0
59.56	0
59.78	7.586
60	3.089
60.22	0.025
60.44	0.006
60.66	0
60.88	0
61.1	0.002
61.32	0.057
61.54	0.614
61.76	0.899
61.98	0.01
62.2	0
62.42	0
62.64	2.436
62.86	0.472
63.08	0
63.3	0
63.52	0.694
63.74	1.276
63.96	2.093
64.18	0.259
64.4	0
64.62	0
64.84	0.015
65.06	0.189
65.28	0.03
65.5	6.013
65.72	1.614
65.94	0
66.16	1.664
66.38	1.669
66.6	0
66.82	1.599
67.04	2.34
67.26	1.917
67.48	1.618
67.7	0.252
67.92	0.362
68.14	0.181
68.36	0.042
68.58	0
68.8	0
69.02	0
69.24	0
69.46	5.826
69.68	2.943
69.9	0.462
70.12	0.134
70.34	0.465
70.56	0.317
70.78	0
71	0
71.22	0.208
71.44	6.209
71.66	2.419
71.88	1.22
72.1	0.83
72.32	0.273
72.54	0.091
72.76	0.525
72.98	0.199
73.2	0
73.42	0.001
73.64	0.039
73.86	0.012
74.08	0
74.3	0.45
74.52	1.643
74.74	0.793
74.96	0.266
75.18	1.176
75.4	0.514
75.62	0.062
75.84	0.033
76.06	0.003
76.28	0
76.5	0.052
76.72	0.026
76.94	0.018
77.16	0.415
77.38	0.255
77.6	0.007
77.82	0
78.04	2.032
78.26	2.68
78.48	0.757
78.7	0.002
78.92	0.306
79.14	0.08
79.36	0.942
79.58	0.36
79.8	0.039
80.02	0.058
80.24	0.005
80.46	0.164
80.68	0.053
80.9	0.367
81.12	0.369
81.34	0.024
81.56	1.717
81.78	0.959
82	0.97
82.22	0.268
82.44	0.002
82.66	0.226
82.88	0.08
83.1	0.049
83.32	0.055
83.54	0
83.76	0.972
83.98	3.68
84.2	1.151
84.42	0.1
84.64	0.545
84.86	0.059
85.08	0.033
85.3	0.472
85.52	0.797
85.74	0.591
85.96	0.12
86.18	0.322
86.4	0.298
86.62	0.376
86.84	0
87.06	0.003
87.28	0.031
87.5	0.162
87.72	0.137
87.94	0.45
88.16	0
88.38	0
88.6	0.002
88.82	0
89.04	0
89.26	0.324
89.48	0.201
89.7	0.174
89.92	0.001
