Measurement: Powder, Xray Data XY Processed
Mineral: Natrolite
Rruff sample: R040112
Ideal chemistry: Na_2_(Si_3_Al_2_)O_10_2H_2_O
Locality: Ice River Alkaline Complex, Moose Creek Valley, Yoho National Park, British Columbia, Canada
Source: National Museums of Canada
Description: Colorless pseudohexagonal prism
Diffraction sample description: Powder
Measured chemistry: Na_2.00_(Si_3.00_Al_2.00_)O_10_Â·2H_2_O
Cell parameters: a: 18.2880(4) b: 18.6434(9) c: 6.5840(2) alpha: 90. beta: 90. gamma: 90. volume: 2244.84(9) crystal system: orthorhombic
x	intensity
5	0
5.22	9.72196
5.44	11.3789
5.66	7.14793
5.88	5.22992
6.1	16.542
6.32	13.9287
6.54	5.67622
6.76	1.01666
6.98	1.62058
7.2	4.39683
7.42	2.07131
7.64	3.71722
7.86	3.44636
8.08	0.831051
8.3	13.6523
8.52	8.22468
8.74	11.1014
8.96	11.1018
9.18	9.21249
9.4	6.29864
9.62	2.31766
9.84	4.45137
10.06	11.5994
10.28	2.35196
10.5	2.58594
10.72	8.06297
10.94	3.62295
11.16	2.51526
11.38	1.51553
11.6	0.239004
11.82	2.15435
12.04	3.95648
12.26	21.6593
12.48	6.37757
12.7	14.1327
12.92	4.89359
13.14	3.34287
13.36	10.0217
13.58	444.669
13.8	17.9826
14.02	9.39395
14.24	3.09431
14.46	8.03684
14.68	11.0496
14.9	6.19059
15.12	749.847
15.34	29.291
15.56	3.53601
15.78	7.12857
16	5.993
16.22	0.508541
16.44	6.89383
16.66	1.55747
16.88	6.15366
17.1	5.61197
17.32	4.48971
17.54	9.09328
17.76	3.50772
17.98	1.89744
18.2	1.68739
18.42	7.53842
18.64	9.15165
18.86	10.4497
19.08	220.53
19.3	3.72828
19.52	82.0328
19.74	7.75613
19.96	11.8687
20.18	28.8045
20.4	155.688
20.62	19.7086
20.84	2.01333
21.06	1.65512
21.28	3.05839
21.5	154.218
21.72	153.686
21.94	12.0911
22.16	5.3547
22.38	5.95988
22.6	3.50143
22.82	5.29641
23.04	6.67591
23.26	5.12618
23.48	5.17552
23.7	3.08762
23.92	5.64944
24.14	4.38811
24.36	12.7186
24.58	29.4157
24.8	9.38527
25.02	3.27581
25.24	7.84441
25.46	5.78703
25.68	10.3976
25.9	14.6196
26.12	4.53881
26.34	9.07882
26.56	5.54519
26.78	6.03252
27	6.4621
27.22	4.21606
27.44	29.0942
27.66	5.63577
27.88	52.6668
28.1	57.9257
28.32	190.989
28.54	26.2678
28.76	55.544
28.98	40.0041
29.2	7.03661
29.42	10.0842
29.64	1.10049
29.86	4.13225
30.08	3.12308
30.3	9.05761
30.52	150.505
30.74	9.19338
30.96	32.4053
31.18	70.5689
31.4	105.321
31.62	92.6025
31.84	2.02041
32.06	7.90747
32.28	5.31608
32.5	7.02604
32.72	1.69931
32.94	8.13424
33.16	4.4016
33.38	4.28531
33.6	9.4032
33.82	3.47188
34.04	4.62124
34.26	1.50937
34.48	0.597608
34.7	17.6355
34.92	79.7177
35.14	9.94114
35.36	3.94871
35.58	4.77994
35.8	5.41406
36.02	0.468023
36.24	0.415133
36.46	8.66631
36.68	31.8047
36.9	28.7429
37.12	4.10298
37.34	103.355
37.56	16.0892
37.78	5.09122
38	3.27246
38.22	1.35649
38.44	2.1329
38.66	22.0529
38.88	54.7848
39.1	3.4142
39.32	7.91664
39.54	10.7419
39.76	9.3383
39.98	34.1586
40.2	1.06982
40.42	19.8425
40.64	8.73061
40.86	2.08911
41.08	20.4376
41.3	30.8257
41.52	135.32
41.74	15.5106
41.96	2.85261
42.18	3.19708
42.4	3.51698
42.62	3.78244
42.84	3.11834
43.06	3.31898
43.28	13.343
43.5	4.3354
43.72	7.525
43.94	7.32767
44.16	39.3851
44.38	7.39745
44.6	9.13089
44.82	1.16438
45.04	6.09297
45.26	3.89653
45.48	7.85319
45.7	6.01655
45.92	7.83512
46.14	5.56318
46.36	23.4542
46.58	8.63253
46.8	0.49894
47.02	4.65276
47.24	9.36779
47.46	7.14459
47.68	5.91524
47.9	3.6529
48.12	3.98512
48.34	14.7278
48.56	20.4009
48.78	28.2571
49	8.60808
49.22	2.30734
49.44	7.79112
49.66	6.79863
49.88	19.8519
50.1	15.1822
50.32	9.73886
50.54	42.3926
50.76	20.044
50.98	41.0528
51.2	8.30226
51.42	5.56604
51.64	9.60631
51.86	0.319444
52.08	45.6931
52.3	12.0089
52.52	23.9238
52.74	13.5551
52.96	8.09807
53.18	52.1332
53.4	9.33928
53.62	6.50825
53.84	61.7866
54.06	9.46748
54.28	6.03707
54.5	6.81789
54.72	13.6344
54.94	2.53926
55.16	2.66227
55.38	0.510766
55.6	2.08496
55.82	23.7226
56.04	14.4654
56.26	21.9244
56.48	12.9844
56.7	20.2019
56.92	19.8478
57.14	3.51684
57.36	24.1965
57.58	11.9977
57.8	7.02328
58.02	9.14765
58.24	5.31712
58.46	10.5462
58.68	11.4461
58.9	2.21492
59.12	6.66239
59.34	5.46408
59.56	4.90006
59.78	0.545453
60	2.08363
60.22	13.3239
60.44	25.5667
60.66	11.7474
60.88	3.75847
61.1	3.16921
61.32	15.5973
61.54	4.54586
61.76	5.68823
61.98	6.59325
62.2	2.19537
62.42	3.79235
62.64	5.6045
62.86	10.2655
63.08	5.44595
63.3	15.2265
63.52	9.77293
63.74	17.6694
63.96	10.6007
64.18	5.56238
64.4	3.93503
64.62	1.04581
64.84	6.20597
65.06	14.3882
65.28	0.821304
65.5	0.096755
65.72	6.35557
65.94	34.4382
66.16	11.5008
66.38	0.654554
66.6	3.6224
66.82	5.35466
67.04	6.84714
67.26	7.09443
67.48	15.1712
67.7	28.9531
67.92	24.8551
68.14	9.94594
68.36	4.93506
68.58	17.5644
68.8	19.5527
69.02	1.38987
69.24	3.17019
69.46	2.47458
69.68	1.9786
69.9	8.56058
70.12	8.28304
70.34	12.7319
70.56	10.3576
70.78	13.0329
71	12.0671
71.22	12.7956
71.44	1.30911
71.66	5.87464
71.88	17.3827
72.1	12.7637
72.32	13.9984
72.54	7.14737
72.76	3.83649
72.98	3.81375
73.2	5.12936
73.42	6.40221
73.64	4.71021
73.86	0.251461
74.08	1.3899
74.3	9.29535
74.52	11.3331
74.74	3.58411
74.96	5.10577
75.18	10.9298
75.4	10.0904
75.62	7.49582
75.84	3.78117
76.06	2.18115
76.28	7.84952
76.5	2.17147
76.72	2.35433
76.94	10.6191
77.16	11.7196
77.38	4.31536
77.6	2.80782
77.82	3.00551
78.04	3.58525
78.26	3.37544
78.48	18.221
78.7	15.1476
78.92	16.5648
79.14	10.2098
79.36	0.066371
79.58	26.6852
79.8	17.6392
80.02	0.950737
80.24	9.12884
80.46	28.391
80.68	21.5452
80.9	7.52571
81.12	5.39386
81.34	12.5848
81.56	5.67989
81.78	12.7501
82	11.8479
82.22	9.07374
82.44	7.11321
82.66	8.93515
82.88	5.97639
83.1	8.32994
83.32	1.79378
83.54	13.9014
83.76	0.939745
83.98	0.028614
84.2	6.10013
84.42	1.04607
84.64	6.17411
84.86	2.94506
85.08	8.82879
85.3	6.71578
85.52	4.56617
85.74	3.3931
85.96	5.46495
86.18	6.49782
86.4	12.9699
86.62	3.18856
86.84	6.41672
87.06	5.60854
87.28	1.86743
87.5	9.25717
87.72	3.60032
87.94	6.07395
88.16	0.719413
88.38	7.71808
88.6	6.85219
88.82	2.58652
89.04	4.86205
89.26	4.02415
89.48	8.02657
89.7	5.42109
89.92	4.22607
