Measurement: Powder, Xray Data XY Processed
Mineral: Natrojarosite
Rruff sample: R050471
Ideal chemistry: NaFe^3+^_3_(S^6+^O_4_)_2_(OH)_6_
Locality: Bristol mine, Pioche, Lincoln County, Nevada, USA
Source: Marcus Origlieri
Description: Tan colored, fine-grained massive
Diffraction sample description: Powder, includes another phase
Measured chemistry: (Na_0.60_K_0.30_Pb_0.10_)_Σ=1_(Fe^3+^_2.98_Al_0.02_)_Σ=3_((S_0.95_As_0.05_)_Σ=1_O_4_)_2_(OH)_6_
Cell parameters: a: 7.3093(6) b: 7.3093(6) c: 34.080(8) alpha: 90 beta: 90 gamma: 120 volume: 1576.8(0) crystal system: hexagonal
x	intensity
5	0
5.22	25.6661
5.44	3.51672
5.66	20.5913
5.88	12.5512
6.1	5.68757
6.32	18.5517
6.54	20.1395
6.76	27.6334
6.98	17.5705
7.2	20.3079
7.42	2.73994
7.64	18.9112
7.86	32.775
8.08	12.7113
8.3	12.0929
8.52	19.6984
8.74	0.767601
8.96	26.0181
9.18	3.97382
9.4	26.896
9.62	23.7009
9.84	23.8875
10.06	5.64708
10.28	42.0468
10.5	9.02605
10.72	43.521
10.94	4.53072
11.16	42.5953
11.38	25.6449
11.6	20.0684
11.82	7.30011
12.04	3.55808
12.26	13.171
12.48	20.2001
12.7	0.60009
12.92	13.5843
13.14	29.7838
13.36	20.1449
13.58	1.33713
13.8	12.552
14.02	1.34918
14.24	15.2674
14.46	9.01848
14.68	6.82714
14.9	118.96
15.12	15.1604
15.34	15.5806
15.56	1.5045
15.78	38.1246
16	53.3862
16.22	20.8511
16.44	15.302
16.66	3.68754
16.88	8.56515
17.1	11.2103
17.32	33.6335
17.54	44.93
17.76	34.365
17.98	7.64069
18.2	14.4703
18.42	27.3895
18.64	15.1464
18.86	9.63504
19.08	2.44095
19.3	7.82582
19.52	18.5826
19.74	12.2671
19.96	10.1502
20.18	15.4367
20.4	18.9389
20.62	21.1407
20.84	12.1655
21.06	27.9789
21.28	28.181
21.5	19.0722
21.72	7.91626
21.94	14.1867
22.16	21.9366
22.38	0.412056
22.6	11.2379
22.82	27.9986
23.04	20.275
23.26	29.2919
23.48	11.0389
23.7	32.6269
23.92	15.703
24.14	0.801506
24.36	77.7729
24.58	29.802
24.8	9.10417
25.02	19.1885
25.24	25.6237
25.46	21.0631
25.68	33.5672
25.9	15.3216
26.12	30.8128
26.34	27.4312
26.56	31.8109
26.78	15.9799
27	7.06329
27.22	39.9253
27.44	3.73845
27.66	51.3236
27.88	27.6651
28.1	32.0345
28.32	17.46
28.54	39.9507
28.76	144.33
28.98	162.721
29.2	116.751
29.42	22.6686
29.64	14.177
29.86	6.04231
30.08	41.5813
30.3	36.471
30.52	3.60696
30.74	3.33408
30.96	21.0307
31.18	0.561768
31.4	10.6056
31.62	39.3743
31.84	45.7141
32.06	8.57968
32.28	15.5309
32.5	7.66637
32.72	1.55626
32.94	9.01582
33.16	7.51281
33.38	16.1448
33.6	12.6489
33.82	25.5107
34.04	37.896
34.26	9.13944
34.48	21.0029
34.7	11.231
34.92	27.6547
35.14	19.6615
35.36	23.723
35.58	16.6374
35.8	35.6378
36.02	23.4647
36.24	22.3636
36.46	8.05222
36.68	23.5365
36.9	6.05508
37.12	16.0458
37.34	11.7091
37.56	22.5449
37.78	29.8015
38	29.6056
38.22	26.7671
38.44	1.54926
38.66	7.71975
38.88	4.26192
39.1	5.37465
39.32	19.6398
39.54	28.2327
39.76	36.863
39.98	5.98776
40.2	3.68574
40.42	44.8191
40.64	36.2713
40.86	3.17502
41.08	23.8053
41.3	19.8386
41.52	7.08418
41.74	15.1999
41.96	8.15351
42.18	17.638
42.4	27.4291
42.62	17.0155
42.84	16.3222
43.06	15.1598
43.28	5.21032
43.5	5.55605
43.72	1.49449
43.94	3.23423
44.16	12.966
44.38	8.21695
44.6	12.3113
44.82	28.5386
45.04	9.05517
45.26	20.609
45.48	21.8371
45.7	31.8697
45.92	40.6891
46.14	24.9572
46.36	5.05608
46.58	28.6268
46.8	18.0778
47.02	20.2081
47.24	30.5743
47.46	12.7143
47.68	20.7532
47.9	38.2984
48.12	18.5987
48.34	23.1356
48.56	14.5577
48.78	3.48626
49	10.9584
49.22	27.1834
49.44	5.53488
49.66	12.7078
49.88	76.9497
50.1	45.3314
50.32	10.3265
50.54	2.86723
50.76	5.36553
50.98	26.0468
51.2	8.17336
51.42	11.2262
51.64	27.1689
51.86	1.98113
52.08	38.8608
52.3	16.2896
52.52	11.2599
52.74	18.035
52.96	13.7784
53.18	34.093
53.4	28.7722
53.62	10.1604
53.84	7.33274
54.06	2.28569
54.28	24.5128
54.5	11.7126
54.72	27.0916
54.94	14.6154
55.16	28.3021
55.38	19.2561
55.6	14.865
55.82	4.07517
56.04	26.3683
56.26	20.5631
56.48	22.5611
56.7	28.4825
56.92	20.6617
57.14	30.0314
57.36	29.0629
57.58	10.369
57.8	27.4609
58.02	0.10067
58.24	24.5271
58.46	1.89494
58.68	26.2705
58.9	14.5866
59.12	20.4812
59.34	22.4444
59.56	7.77846
59.78	2.63745
60	29.5586
60.22	17.6525
60.44	9.70734
60.66	17.4868
60.88	25.8607
61.1	0.19236
61.32	6.74404
61.54	13.7881
61.76	9.81393
61.98	33.6051
62.2	22.7076
62.42	34.4116
62.64	22.8182
62.86	4.85498
63.08	4.29261
63.3	15.4207
63.52	11.9731
63.74	22.4074
63.96	3.87953
64.18	6.84419
64.4	17.0942
64.62	28.9891
64.84	2.40588
65.06	3.9548
65.28	11.3122
65.5	22.5455
65.72	4.15855
65.94	9.55775
66.16	20.5304
66.38	16.3764
66.6	32.5729
66.82	16.435
67.04	34.6367
67.26	19.0748
67.48	9.2028
67.7	5.17265
67.92	19.425
68.14	15.5147
68.36	5.41645
68.58	0.314064
68.8	1.48328
69.02	13.8156
69.24	10.2414
69.46	15.1071
69.68	2.10534
69.9	23.1644
70.12	28.209
70.34	25.3906
70.56	30.0824
70.78	9.61847
71	25.8101
71.22	14.6658
71.44	23.9896
71.66	23.0925
71.88	20.8491
72.1	18.1118
72.32	22.273
72.54	13.1145
72.76	18.3544
72.98	24.194
73.2	25.824
73.42	17.7986
73.64	4.37347
73.86	30.2954
74.08	19.1168
74.3	12.0799
74.52	38.0553
74.74	10.659
74.96	28.8973
75.18	0.556503
75.4	16.2943
75.62	1.59826
75.84	29.7008
76.06	29.2712
76.28	34.8516
76.5	31.8831
76.72	17.1492
76.94	6.20722
77.16	0.753922
77.38	2.36781
77.6	1.72472
77.82	11.0382
78.04	4.34848
78.26	32.5015
78.48	29.436
78.7	29.9891
78.92	12.7282
79.14	1.47634
79.36	13.7308
79.58	13.5193
79.8	31.1611
80.02	10.0787
80.24	15.6422
80.46	14.6649
80.68	15.8287
80.9	6.96729
81.12	14.755
81.34	0.909187
81.56	28.5656
81.78	10.8067
82	4.08657
82.22	5.34645
82.44	10.8143
82.66	8.2336
82.88	17.5351
83.1	19.3503
83.32	22.9581
83.54	9.36329
83.76	44.3093
83.98	4.03231
84.2	15.0099
84.42	6.59639
84.64	7.49237
84.86	12.4658
85.08	37.923
85.3	18.321
85.52	14.7769
85.74	6.90157
85.96	19.5398
86.18	31.6674
86.4	15.2853
86.62	2.10963
86.84	14.3057
87.06	3.64152
87.28	41.7534
87.5	10.2541
87.72	5.8032
87.94	4.96316
88.16	8.54292
88.38	27.6526
88.6	16.3373
88.82	20.9481
89.04	4.19488
89.26	16.9872
89.48	16.202
89.7	7.79063
89.92	15.4761
