Measurement: Powder, Xray Data XY Processed
Mineral: Neptunite
Rruff sample: R060746
Ideal chemistry: KNa_2_LiFe^2+^_2_Ti^4+^_2_Si_8_O_24_
Locality: San Benito Mountains, San Benito County, California, USA
Source: California Institute of Technology
Description: Deep red-black fragment of a prismatic single crystal
Diffraction sample description: Powder
Measured chemistry: K_1.00_Na_2.00_Li_1.00_(Fe^2+^_1.48_Mg_0.36_Mn_0.16_)_Î£=2_Ti_2.00_Si_8.00_O_24_
Cell parameters: a: 16.444(1) b: 12.494(2) c: 9.988(1) alpha: 90 beta: 115.577(9) gamma: 90 volume: 1850.9(0) crystal system: monoclinic
x	intensity
5	0
5.22	13.3698
5.44	8.7608
5.66	2.15954
5.88	5.8097
6.1	24.1613
6.32	9.47395
6.54	13.9743
6.76	12.6997
6.98	20.3267
7.2	21.9864
7.42	1.75786
7.64	4.078
7.86	1.56799
8.08	10.6392
8.3	0.772345
8.52	22.8468
8.74	5.31543
8.96	14.5706
9.18	72.3308
9.4	20.1842
9.62	7.98946
9.84	2.57381
10.06	2.10874
10.28	13.205
10.5	6.48248
10.72	19.372
10.94	7.94168
11.16	7.26006
11.38	1.59348
11.6	12.094
11.82	3.70922
12.04	12.8203
12.26	7.67176
12.48	13.2179
12.7	6.71222
12.92	11.2093
13.14	10.9731
13.36	12.0888
13.58	1.32903
13.8	13.9123
14.02	5.84442
14.24	17.9667
14.46	10.0683
14.68	7.13579
14.9	6.15992
15.12	5.99559
15.34	20.9168
15.56	5.89396
15.78	13.8204
16	14.1241
16.22	10.0316
16.44	12.8023
16.66	1.35796
16.88	10.2479
17.1	5.00455
17.32	4.77599
17.54	0.48877
17.76	3.43387
17.98	7.51996
18.2	13.2744
18.42	12.2324
18.64	20.1423
18.86	0.98419
19.08	12.42
19.3	16.2136
19.52	6.99943
19.74	33.1327
19.96	13.4423
20.18	3.36256
20.4	7.65104
20.62	3.68175
20.84	3.38052
21.06	16.3412
21.28	12.9125
21.5	1.84604
21.72	17.7317
21.94	9.03482
22.16	16.7481
22.38	6.53198
22.6	20.1535
22.82	15.9567
23.04	7.72872
23.26	29.4778
23.48	1.82447
23.7	7.44106
23.92	3.1572
24.14	11.1477
24.36	9.11231
24.58	0.583324
24.8	4.03153
25.02	21.9752
25.24	23.9745
25.46	33.099
25.68	13.1189
25.9	2.54007
26.12	8.16388
26.34	1.56719
26.56	1.72381
26.78	6.5084
27	43.9192
27.22	1.68721
27.44	7.12619
27.66	9.69368
27.88	14.957
28.1	125.17
28.32	12.9543
28.54	13.0472
28.76	9.43354
28.98	19.9335
29.2	7.6877
29.42	16.4246
29.64	6.34035
29.86	6.73237
30.08	9.16366
30.3	31.5716
30.52	58.4403
30.74	12.8956
30.96	69.4137
31.18	13.8415
31.4	13.065
31.62	32.5767
31.84	9.0347
32.06	6.36501
32.28	16.1421
32.5	14.713
32.72	1.04117
32.94	20.2425
33.16	7.69632
33.38	18.4195
33.6	5.7139
33.82	11.7014
34.04	6.56035
34.26	8.78577
34.48	15.5672
34.7	9.905
34.92	17.0749
35.14	30.6852
35.36	5.47942
35.58	6.49552
35.8	10.7033
36.02	57.7123
36.24	47.5847
36.46	40.5969
36.68	20.3951
36.9	11.7223
37.12	10.6871
37.34	1.76891
37.56	1.1113
37.78	2.01178
38	1.85172
38.22	8.32505
38.44	18.164
38.66	6.59863
38.88	6.62556
39.1	25.5987
39.32	10.4656
39.54	4.01553
39.76	15.1193
39.98	10.7464
40.2	4.31708
40.42	23.4617
40.64	1.66949
40.86	3.59137
41.08	4.12939
41.3	8.46179
41.52	2.31447
41.74	74.9099
41.96	12.5915
42.18	8.10117
42.4	9.53865
42.62	0.750368
42.84	11.8375
43.06	2.60759
43.28	6.46771
43.5	19.6901
43.72	15.1396
43.94	7.64131
44.16	25.683
44.38	22.3322
44.6	10.4407
44.82	17.553
45.04	0.583469
45.26	33.5612
45.48	1.59996
45.7	19.9351
45.92	18.6955
46.14	15.7759
46.36	8.24634
46.58	11.354
46.8	11.9331
47.02	11.1307
47.24	12.8241
47.46	30.7209
47.68	21.9242
47.9	1.71378
48.12	2.21937
48.34	10.9778
48.56	5.07908
48.78	12.3297
49	13.9306
49.22	9.42417
49.44	10.4038
49.66	17.8744
49.88	9.23138
50.1	26.8209
50.32	7.61787
50.54	14.3847
50.76	5.3001
50.98	9.28503
51.2	9.91995
51.42	17.6423
51.64	10.8617
51.86	4.60329
52.08	10.8336
52.3	6.64066
52.52	9.48728
52.74	10.4902
52.96	14.5629
53.18	12.3738
53.4	0.130823
53.62	7.86132
53.84	3.60173
54.06	10.3665
54.28	18.2953
54.5	3.69382
54.72	10.7969
54.94	9.11416
55.16	13.0762
55.38	10.4117
55.6	11.6348
55.82	2.75925
56.04	12.7567
56.26	8.83572
56.48	17.1289
56.7	5.5698
56.92	14.7376
57.14	1.4676
57.36	5.58348
57.58	10.8101
57.8	11.2376
58.02	9.33509
58.24	15.5109
58.46	4.86846
58.68	6.77193
58.9	8.31561
59.12	27.2754
59.34	18.566
59.56	9.57933
59.78	13.5896
60	12.4881
60.22	10.7259
60.44	10.8971
60.66	5.69453
60.88	13.7452
61.1	6.18119
61.32	4.5906
61.54	23.4784
61.76	43.1467
61.98	12.2357
62.2	9.22917
62.42	6.05627
62.64	11.6741
62.86	24.5903
63.08	2.42979
63.3	3.31781
63.52	7.98098
63.74	9.50842
63.96	7.37446
64.18	5.60732
64.4	2.58207
64.62	9.70525
64.84	1.66929
65.06	2.46676
65.28	1.35476
65.5	16.2046
65.72	13.1561
65.94	19.874
66.16	0.257116
66.38	14.0703
66.6	13.9944
66.82	1.80948
67.04	5.36613
67.26	7.36215
67.48	4.94781
67.7	24.3836
67.92	8.70269
68.14	15.7357
68.36	7.92462
68.58	0.716225
68.8	0.166107
69.02	8.22572
69.24	6.02411
69.46	14.4996
69.68	12.4896
69.9	1.12372
70.12	6.5198
70.34	3.5244
70.56	5.91392
70.78	10.9973
71	12.4244
71.22	5.40303
71.44	8.39424
71.66	21.4286
71.88	0.952545
72.1	12.1081
72.32	8.03758
72.54	1.85182
72.76	4.70609
72.98	16.8298
73.2	24.734
73.42	10.233
73.64	4.25247
73.86	2.9948
74.08	11.4078
74.3	6.19337
74.52	18.5657
74.74	4.8321
74.96	7.9871
75.18	10.1849
75.4	10.3154
75.62	4.48166
75.84	23.6112
76.06	6.19564
76.28	8.54442
76.5	9.21145
76.72	16.7692
76.94	17.7003
77.16	4.72354
77.38	7.71822
77.6	17.2362
77.82	3.43439
78.04	10.8325
78.26	20.6685
78.48	10.6589
78.7	13.5306
78.92	7.63283
79.14	13.0155
79.36	7.03363
79.58	4.41213
79.8	11.2962
80.02	0.183958
80.24	1.7884
80.46	12.4546
80.68	10.5239
80.9	12.5098
81.12	13.5394
81.34	9.68142
81.56	10.8956
81.78	8.90442
82	9.42268
82.22	4.66394
82.44	12.6357
82.66	15.4036
82.88	11.4314
83.1	16.5782
83.32	2.64595
83.54	9.44553
83.76	5.47812
83.98	8.20674
84.2	0.246099
84.42	17.0128
84.64	0.904713
84.86	10.6054
85.08	10.4545
85.3	8.66483
85.52	10.3135
85.74	8.21647
85.96	12.1833
86.18	9.89914
86.4	13.9176
86.62	7.06977
86.84	15.0437
87.06	19.8384
87.28	11.7095
87.5	15.6466
87.72	2.70958
87.94	15.5573
88.16	10.9194
88.38	11.91
88.6	11.9159
88.82	6.04122
89.04	16.0434
89.26	9.68889
89.48	11.4297
89.7	13.9633
89.92	15.3472
