Measurement: Powder, Xray Data XY Processed
Mineral: Nesquehonite
Rruff sample: R050639
Ideal chemistry: MgCO_3_3H_2_O
Locality: Nesquehoning, Pennsylvania, USA
Source: University of Arizona Mineral Museum
Description: White to colorless bladed crystals
Diffraction sample description: Powder
Measured chemistry: Mg_1.00_(HCO_3_)(OH)Â·2H_2_O ; C and H not measured but estimated by difference and charge balance
Cell parameters: a: 7.6999(6) b: 5.3634(3) c: 12.1192(6) alpha: 90 beta: 90.2(1) gamma: 90 volume: 500.49(5) crystal system: monoclinic
x	intensity
5	0
5.22	13.5921
5.44	14.366
5.66	16.436
5.88	10.8275
6.1	15.4275
6.32	12.8791
6.54	5.61627
6.76	15.4607
6.98	0.258394
7.2	14.9394
7.42	19.641
7.64	12.6021
7.86	12.5138
8.08	9.74227
8.3	7.23088
8.52	0.157757
8.74	14.6506
8.96	3.10572
9.18	10.5222
9.4	11.7246
9.62	16.7865
9.84	9.93741
10.06	12.6739
10.28	7.46491
10.5	5.1924
10.72	11.3108
10.94	5.7555
11.16	0.15279
11.38	0.621766
11.6	4.0695
11.82	6.5212
12.04	2.42473
12.26	18.7455
12.48	10.9006
12.7	7.16522
12.92	11.0388
13.14	13.5468
13.36	28.7165
13.58	1286.31
13.8	127.875
14.02	17.9852
14.24	4.02592
14.46	13.7782
14.68	20.3409
14.9	4.83343
15.12	1.98982
15.34	12.8288
15.56	1.89428
15.78	9.63435
16	4.93652
16.22	7.65184
16.44	5.0005
16.66	1.17277
16.88	9.0472
17.1	8.11204
17.32	6.8417
17.54	9.8446
17.76	7.69477
17.98	16.7566
18.2	25.383
18.42	8.02663
18.64	6.34672
18.86	0.326054
19.08	4.45683
19.3	1.56878
19.52	2.83421
19.74	3.70462
19.96	10.4129
20.18	7.09423
20.4	11.2083
20.62	5.85892
20.84	38.9526
21.06	8.36422
21.28	10.4938
21.5	40.2569
21.72	0.196213
21.94	6.70108
22.16	1.61651
22.38	31.5968
22.6	20.6698
22.82	25.0138
23.04	631.674
23.26	84.7747
23.48	23.3427
23.7	15.8515
23.92	10.8865
24.14	3.20236
24.36	18.3695
24.58	3.15899
24.8	141.953
25.02	75.5827
25.24	15.2132
25.46	10.8169
25.68	6.74796
25.9	15.3409
26.12	13.3128
26.34	9.11737
26.56	7.68386
26.78	0.809763
27	7.79874
27.22	13.3678
27.44	33.4438
27.66	148.372
27.88	22.4219
28.1	12.6106
28.32	3.84668
28.54	15.6887
28.76	3.70878
28.98	3.78039
29.2	12.9956
29.42	248.467
29.64	71.3794
29.86	19.2042
30.08	55.3175
30.3	0.279942
30.52	13.1959
30.74	6.76561
30.96	3.69814
31.18	4.7612
31.4	7.19955
31.62	5.20618
31.84	16.1122
32.06	75.3397
32.28	113.436
32.5	33.637
32.72	21.0658
32.94	12.936
33.16	0.929523
33.38	11.1253
33.6	1.18178
33.82	4.72959
34.04	49.3535
34.26	165.413
34.48	21.9111
34.7	3.64541
34.92	1.57567
35.14	12.103
35.36	12.9803
35.58	29.062
35.8	240.331
36.02	81.8469
36.24	28.749
36.46	28.6322
36.68	0.172874
36.9	8.14138
37.12	6.67523
37.34	1.20516
37.56	10.7554
37.78	2.64432
38	22.2024
38.22	9.64768
38.44	32.1655
38.66	16.3354
38.88	17.6817
39.1	8.43863
39.32	5.21582
39.54	10.5024
39.76	6.71531
39.98	8.49343
40.2	1.16062
40.42	2.3611
40.64	0.628702
40.86	19.8086
41.08	16.6129
41.3	13.3605
41.52	46.1928
41.74	37.8446
41.96	26.527
42.18	6.60414
42.4	15.0009
42.62	9.69419
42.84	20.5433
43.06	5.04907
43.28	4.81175
43.5	3.19047
43.72	16.5393
43.94	2.13424
44.16	11.0998
44.38	16.2561
44.6	15.9276
44.82	66.9497
45.04	29.4097
45.26	25.9637
45.48	7.72794
45.7	22.0302
45.92	11.6771
46.14	1.34538
46.36	5.97837
46.58	18.682
46.8	16.8128
47.02	21.8411
47.24	127.524
47.46	30.2098
47.68	6.29747
47.9	14.3373
48.12	18.3924
48.34	2.56281
48.56	12.7638
48.78	1.99209
49	14.1175
49.22	0.93651
49.44	11.5744
49.66	24.5295
49.88	9.26272
50.1	14.2062
50.32	6.70198
50.54	11.3489
50.76	62.718
50.98	19.1658
51.2	10.4462
51.42	6.05727
51.64	18.3081
51.86	1.1713
52.08	6.08444
52.3	8.3053
52.52	5.42405
52.74	5.31025
52.96	11.4966
53.18	18.2261
53.4	25.349
53.62	7.62996
53.84	11.5049
54.06	3.67274
54.28	9.53256
54.5	2.59681
54.72	2.24799
54.94	5.8498
55.16	13.6647
55.38	12.0328
55.6	17.931
55.82	21.6588
56.04	11.4661
56.26	10.4426
56.48	15.4874
56.7	13.8844
56.92	1.11165
57.14	3.36296
57.36	6.05411
57.58	0.658456
57.8	9.15432
58.02	7.84603
58.24	13.0839
58.46	11.3027
58.68	11.4635
58.9	12.6644
59.12	9.50321
59.34	0.091439
59.56	14.7275
59.78	6.72551
60	3.55597
60.22	6.27605
60.44	7.9749
60.66	0.2428
60.88	6.67959
61.1	10.6268
61.32	7.68701
61.54	8.69445
61.76	5.65325
61.98	5.88212
62.2	0.031398
62.42	10.445
62.64	1.67937
62.86	10.4743
63.08	7.52354
63.3	0.28922
63.52	2.40166
63.74	3.46891
63.96	6.59292
64.18	12.6751
64.4	7.09567
64.62	5.37007
64.84	9.216
65.06	14.3754
65.28	7.51419
65.5	3.69058
65.72	5.0214
65.94	7.10323
66.16	9.19374
66.38	11.0921
66.6	6.09762
66.82	5.69714
67.04	6.5111
67.26	14.4239
67.48	5.49695
67.7	5.05195
67.92	3.84677
68.14	3.22259
68.36	1.53714
68.58	3.69839
68.8	4.93092
69.02	1.11226
69.24	3.25037
69.46	9.59885
69.68	9.64368
69.9	4.58561
70.12	13.5364
70.34	0.467555
70.56	3.15263
70.78	8.95188
71	0.777579
71.22	7.69988
71.44	5.62762
71.66	10.0244
71.88	7.00395
72.1	10.1625
72.32	9.66336
72.54	7.3689
72.76	1.55256
72.98	1.41925
73.2	1.3855
73.42	5.61327
73.64	3.68943
73.86	20.6403
74.08	3.20607
74.3	6.2078
74.52	4.18118
74.74	7.85053
74.96	6.0614
75.18	6.19207
75.4	11.4192
75.62	16.8871
75.84	1.22765
76.06	7.45366
76.28	6.75777
76.5	10.0526
76.72	15.9245
76.94	8.12935
77.16	3.24997
77.38	5.2876
77.6	1.20085
77.82	2.56712
78.04	11.5025
78.26	3.86794
78.48	4.93897
78.7	1.90042
78.92	6.22098
79.14	1.46152
79.36	1.54732
79.58	7.62623
79.8	10.5518
80.02	0.236808
80.24	3.39392
80.46	5.50022
80.68	2.62168
80.9	4.87125
81.12	4.80112
81.34	0.055452
81.56	7.76031
81.78	8.91917
82	4.09129
82.22	8.88557
82.44	0.829627
82.66	5.65753
82.88	9.61124
83.1	5.35861
83.32	3.12182
83.54	3.28158
83.76	6.0814
83.98	3.15679
84.2	5.13313
84.42	6.32539
84.64	6.41102
84.86	9.71237
85.08	7.08554
85.3	1.15419
85.52	4.3479
85.74	3.46317
85.96	6.40725
86.18	4.49655
86.4	5.81556
86.62	5.7146
86.84	2.63531
87.06	8.5716
87.28	0.336112
87.5	3.04762
87.72	0.9063
87.94	0.143479
88.16	1.79814
88.38	7.93064
88.6	5.01255
88.82	1.05743
89.04	6.22369
89.26	4.6442
89.48	7.22688
89.7	4.0144
89.92	10.4824
