Measurement: Powder, Xray Data XY Processed
Mineral: Newberyite
Rruff sample: R050513
Ideal chemistry: Mg(PO_3_OH)3H_2_O
Locality: Australia
Source: American Museum of Natural History
Description: An aggregate of beige fragments
Diffraction sample description: Powder
Measured chemistry: (Mg_0.98_Mn_0.01_Ca_0.01_)_Σ=1_(P_1.00_O_3_OH)·3H_2_O
Cell parameters: a: 10.2096(5) b: 10.6781(5) c: 10.0096(5) alpha: 90. beta: 90. gamma: 90. volume: 1091.26(7) crystal system: orthorhombic
x	intensity
5	0
5.22	12.1965
5.44	5.50194
5.66	16.8007
5.88	1.57359
6.1	16.3168
6.32	10.2817
6.54	12.3314
6.76	7.65935
6.98	8.70546
7.2	5.46465
7.42	0.029112
7.64	8.73438
7.86	11.8587
8.08	12.4846
8.3	0.079407
8.52	10.8404
8.74	4.19223
8.96	2.38904
9.18	8.28422
9.4	8.34235
9.62	0.503605
9.84	11.6313
10.06	7.81657
10.28	7.45797
10.5	10.4294
10.72	12.2478
10.94	4.30562
11.16	3.54755
11.38	6.77825
11.6	26.8189
11.82	17.2111
12.04	10.091
12.26	9.00175
12.48	5.2062
12.7	5.5429
12.92	7.88731
13.14	10.9417
13.36	11.6549
13.58	4.30163
13.8	18.8694
14.02	8.54164
14.24	3.20387
14.46	10.4039
14.68	21.1832
14.9	339.923
15.12	16.2128
15.34	6.88679
15.56	5.58652
15.78	2.44949
16	14.4921
16.22	1.73373
16.44	22.4809
16.66	31.1392
16.88	9.89748
17.1	15.1694
17.32	39.6147
17.54	3.17802
17.76	5.68403
17.98	5.34658
18.2	13.9302
18.42	10.4869
18.64	16.1311
18.86	167.408
19.08	11.0564
19.3	52.7639
19.52	11.1073
19.74	113.998
19.96	3.16398
20.18	0.676493
20.4	12.3401
20.62	5.39981
20.84	12.0405
21.06	11.4425
21.28	0.454245
21.5	34.7241
21.72	15.9499
21.94	7.34225
22.16	1.70749
22.38	4.80922
22.6	2.2793
22.82	6.49008
23.04	10.3295
23.26	9.36911
23.48	15.195
23.7	6.57486
23.92	5.10973
24.14	37.7588
24.36	40.8861
24.58	4.84671
24.8	17.2001
25.02	7.17036
25.24	13.5979
25.46	22.608
25.68	374.967
25.9	45.9222
26.12	6.59579
26.34	20.497
26.56	14.817
26.78	10.5654
27	19.3059
27.22	9.20016
27.44	3.3829
27.66	9.24568
27.88	26.7612
28.1	20.9257
28.32	7.81323
28.54	10.1555
28.76	20.9368
28.98	140.768
29.2	37.4899
29.42	126.063
29.64	8.78776
29.86	5.53029
30.08	6.28674
30.3	3.1648
30.52	9.63401
30.74	4.14893
30.96	1.66493
31.18	4.06603
31.4	7.79555
31.62	13.2054
31.84	50.2057
32.06	73.9797
32.28	6.74586
32.5	5.40185
32.72	15.7249
32.94	77.175
33.16	20.8717
33.38	4.14814
33.6	20.1186
33.82	13.9209
34.04	8.1525
34.26	8.09841
34.48	3.27587
34.7	155.781
34.92	16.9702
35.14	1.32519
35.36	4.57183
35.58	25.7478
35.8	26.8889
36.02	2.09382
36.24	14.3321
36.46	7.5593
36.68	1.17943
36.9	35.4833
37.12	6.91881
37.34	25.2077
37.56	26.9685
37.78	17.5788
38	43.9119
38.22	4.44081
38.44	4.91865
38.66	4.55882
38.88	0.864584
39.1	6.39433
39.32	10.9148
39.54	8.86932
39.76	4.72547
39.98	2.84384
40.2	2.28418
40.42	0.085714
40.64	10.3951
40.86	26.7181
41.08	34.3888
41.3	15.4866
41.52	16.3779
41.74	8.53495
41.96	17.5698
42.18	39.4863
42.4	9.95938
42.62	10.8236
42.84	9.49421
43.06	2.16156
43.28	26.6929
43.5	11.6425
43.72	2.39848
43.94	13.5703
44.16	14.0086
44.38	18.1627
44.6	7.97767
44.82	4.9029
45.04	8.01924
45.26	3.33575
45.48	11.9272
45.7	17.9012
45.92	17.8281
46.14	1.54357
46.36	4.93979
46.58	3.6003
46.8	9.24239
47.02	40.0447
47.24	7.88812
47.46	9.79878
47.68	0.546604
47.9	13.1122
48.12	8.83801
48.34	15.1154
48.56	9.47793
48.78	8.01106
49	0.827097
49.22	0.636349
49.44	1.26902
49.66	1.52392
49.88	9.71696
50.1	15.9867
50.32	3.23313
50.54	4.88681
50.76	29.8272
50.98	15.5346
51.2	1.51638
51.42	1.68645
51.64	7.04489
51.86	23.9823
52.08	27.1426
52.3	9.19352
52.52	3.13557
52.74	8.01838
52.96	5.97104
53.18	17.234
53.4	7.14218
53.62	2.01295
53.84	10.6382
54.06	0.574041
54.28	3.28384
54.5	29.2545
54.72	18.3892
54.94	18.3021
55.16	6.43004
55.38	33.7249
55.6	8.62888
55.82	12.7105
56.04	18.8358
56.26	0.095106
56.48	8.45402
56.7	3.28225
56.92	8.09878
57.14	15.8326
57.36	5.99679
57.58	6.64076
57.8	17.4401
58.02	11.662
58.24	19.7116
58.46	2.87118
58.68	7.2902
58.9	12.5741
59.12	10.093
59.34	0.705505
59.56	8.28141
59.78	0.462011
60	8.09924
60.22	4.46861
60.44	2.54923
60.66	10.7362
60.88	3.87739
61.1	9.73229
61.32	9.78398
61.54	9.22075
61.76	7.09033
61.98	6.88556
62.2	13.6846
62.42	5.31469
62.64	11.2128
62.86	6.07107
63.08	6.90566
63.3	7.78319
63.52	13.8073
63.74	5.82293
63.96	1.53241
64.18	9.3958
64.4	16.4609
64.62	4.69822
64.84	10.6604
65.06	3.58853
65.28	0.522228
65.5	6.59933
65.72	2.41062
65.94	22.361
66.16	14.3492
66.38	7.18531
66.6	8.33304
66.82	0.592114
67.04	12.4642
67.26	3.76288
67.48	7.42453
67.7	6.85372
67.92	8.17328
68.14	5.42642
68.36	5.89089
68.58	2.19971
68.8	2.49266
69.02	15.4695
69.24	5.64759
69.46	1.347
69.68	2.25867
69.9	10.9003
70.12	7.93444
70.34	2.02071
70.56	3.81037
70.78	20.5604
71	13.6198
71.22	3.6599
71.44	5.75047
71.66	3.87816
71.88	7.15231
72.1	5.42549
72.32	1.24183
72.54	1.31773
72.76	8.12974
72.98	2.15857
73.2	11.3983
73.42	3.64067
73.64	14.619
73.86	9.46071
74.08	8.21302
74.3	1.07467
74.52	2.91015
74.74	4.86401
74.96	10.7891
75.18	7.06507
75.4	6.04223
75.62	0.02485
75.84	2.72221
76.06	4.80505
76.28	2.78894
76.5	6.92585
76.72	6.00925
76.94	8.24375
77.16	8.34538
77.38	3.39141
77.6	8.60281
77.82	3.83739
78.04	6.09992
78.26	5.14245
78.48	12.3446
78.7	4.86931
78.92	8.07499
79.14	0.100768
79.36	3.15231
79.58	1.17593
79.8	9.03422
80.02	0.883719
80.24	1.7692
80.46	2.45083
80.68	6.45255
80.9	1.4599
81.12	2.26539
81.34	9.25011
81.56	13.4559
81.78	9.55824
82	2.65591
82.22	4.75326
82.44	7.06718
82.66	6.50674
82.88	7.61365
83.1	3.56741
83.32	5.63809
83.54	1.56095
83.76	10.6464
83.98	8.5842
84.2	13.6215
84.42	7.94755
84.64	11.0443
84.86	5.8593
85.08	2.63913
85.3	13.6806
85.52	0.833726
85.74	4.67469
85.96	3.66227
86.18	7.78097
86.4	6.85867
86.62	5.71685
86.84	5.4408
87.06	7.80162
87.28	3.92108
87.5	6.96537
87.72	4.9853
87.94	8.04771
88.16	1.7851
88.38	9.50842
88.6	6.66387
88.82	1.63581
89.04	5.85962
89.26	6.76455
89.48	6.04866
89.7	4.38096
89.92	0.282896
