Measurement: Powder, Xray Data XY Processed
Mineral: Nifontovite
Rruff sample: R060685
Ideal chemistry: Ca_3_[BO(OH)_2_]_6_2H_2_O
Locality: Fuka mine, Okayama Prefecture, Japan
Source: Michael Scott
Description: Colorless prismatic crystal
Diffraction sample description: Powder
Measured chemistry: Ca_3.00_[BO(OH)_2_]_6_Â·2H_2_O ; = darker phase. H_2_O assumed ideal from stoichiometry; B_2_O_3_ estimated by difference
Cell parameters: a: 13.1176(3) b: 13.4427(5) c: 9.5231(4) alpha: 90 beta: 90 gamma: 118.403(2) volume: 1477.12(6) crystal system: monoclinic
x	intensity
5	0
5.22	8.65706
5.44	6.03156
5.66	10.7791
5.88	6.82533
6.1	4.03539
6.32	3.40193
6.54	6.39177
6.76	7.40941
6.98	7.51009
7.2	7.96132
7.42	2.18378
7.64	13.8566
7.86	9.05045
8.08	0.366775
8.3	5.5488
8.52	3.78211
8.74	2.02064
8.96	0.224151
9.18	7.33488
9.4	2.55568
9.62	3.57719
9.84	11.4468
10.06	3.26456
10.28	3.47035
10.5	3.2863
10.72	5.99302
10.94	11.3792
11.16	10.9817
11.38	2.35512
11.6	11.1416
11.82	15.6856
12.04	685.241
12.26	17.8227
12.48	5.70053
12.7	6.02602
12.92	2.12066
13.14	6.39518
13.36	8.15593
13.58	0.866511
13.8	0.534422
14.02	6.04363
14.24	0.360255
14.46	16.6603
14.68	0.949558
14.9	23.2351
15.12	19.6053
15.34	152.686
15.56	98.4129
15.78	2.57516
16	315.793
16.22	10.4555
16.44	1.14002
16.66	11.8233
16.88	0.652088
17.1	2.18619
17.32	5.85504
17.54	8.32628
17.76	7.90359
17.98	10.0931
18.2	2.08869
18.42	1.10934
18.64	13.5712
18.86	11.6349
19.08	4.5132
19.3	6.61947
19.52	1.76575
19.74	8.02687
19.96	17.9868
20.18	34.3081
20.4	1.47629
20.62	12.5252
20.84	13.3647
21.06	12.9104
21.28	3.2978
21.5	9.4079
21.72	2.75427
21.94	33.0793
22.16	49.6018
22.38	1.29285
22.6	43.6859
22.82	4.27823
23.04	125.18
23.26	16.3267
23.48	7.89707
23.7	12.1941
23.92	21.4125
24.14	13.2073
24.36	23.0183
24.58	17.4042
24.8	10.271
25.02	31.1189
25.24	2.61563
25.46	10.5866
25.68	5.8074
25.9	13.8963
26.12	6.87575
26.34	12.8707
26.56	16.1676
26.78	8.3491
27	13.5443
27.22	13.3122
27.44	8.51277
27.66	0.728781
27.88	5.86219
28.1	3.60029
28.32	9.53567
28.54	5.55479
28.76	27.7806
28.98	46.1709
29.2	106.568
29.42	65.9385
29.64	8.78031
29.86	2.5675
30.08	16.5775
30.3	133.75
30.52	6.00774
30.74	4.01201
30.96	14.8467
31.18	12.0162
31.4	7.11122
31.62	12.3113
31.84	3.08736
32.06	6.37445
32.28	13.7544
32.5	23.0491
32.72	68.8722
32.94	11.6578
33.16	44.5406
33.38	10.1099
33.6	5.15433
33.82	14.1368
34.04	67.9869
34.26	11.702
34.48	14.5715
34.7	17.2435
34.92	13.718
35.14	46.3304
35.36	3.95699
35.58	16.7504
35.8	12.9996
36.02	23.5257
36.24	45.3234
36.46	16.459
36.68	252.957
36.9	95.2418
37.12	26.1235
37.34	8.86874
37.56	1.29541
37.78	42.5627
38	0.077934
38.22	54.1372
38.44	8.9078
38.66	1.82376
38.88	9.92062
39.1	1.06923
39.32	8.8892
39.54	11.7716
39.76	2.25494
39.98	8.72198
40.2	55.414
40.42	33.0787
40.64	37.9701
40.86	49.794
41.08	4.09448
41.3	2.38595
41.52	23.1358
41.74	15.9791
41.96	15.1474
42.18	6.35565
42.4	5.52199
42.62	3.49047
42.84	2.26906
43.06	7.58872
43.28	17.008
43.5	7.91252
43.72	34.7263
43.94	20.0342
44.16	9.61169
44.38	1.93209
44.6	13.0861
44.82	21.6116
45.04	1.31974
45.26	9.66345
45.48	0.328993
45.7	16.2981
45.92	12.3086
46.14	10.2251
46.36	11.8248
46.58	14.8152
46.8	15.4362
47.02	4.84455
47.24	102.501
47.46	2.39026
47.68	0.352757
47.9	27.4414
48.12	0.745188
48.34	10.5473
48.56	16.9515
48.78	5.88818
49	7.775
49.22	46.6748
49.44	40.7028
49.66	43.8636
49.88	22.2302
50.1	6.84607
50.32	4.92465
50.54	7.95133
50.76	4.92938
50.98	4.76518
51.2	26.6332
51.42	30.0037
51.64	30.392
51.86	38.6286
52.08	6.22722
52.3	14.7945
52.52	22.0892
52.74	9.52158
52.96	3.47546
53.18	9.23236
53.4	6.91551
53.62	16.3598
53.84	21.1961
54.06	12.5398
54.28	3.36644
54.5	4.01505
54.72	7.50834
54.94	3.53309
55.16	12.4848
55.38	23.8076
55.6	12.6095
55.82	19.4033
56.04	4.87087
56.26	2.51836
56.48	2.58619
56.7	3.18261
56.92	1.24624
57.14	2.60284
57.36	14.8295
57.58	2.36686
57.8	0.799951
58.02	9.16708
58.24	23.0922
58.46	13.0718
58.68	2.83663
58.9	0.308105
59.12	7.48063
59.34	5.43181
59.56	24.5112
59.78	1.75979
60	14.9352
60.22	2.33718
60.44	1.36529
60.66	5.5172
60.88	7.65847
61.1	5.78588
61.32	0.134538
61.54	1.80858
61.76	6.80187
61.98	4.98939
62.2	10.9246
62.42	8.6259
62.64	5.24237
62.86	6.25945
63.08	14.3262
63.3	9.94743
63.52	11.9846
63.74	12.1132
63.96	8.50606
64.18	2.68318
64.4	7.62494
64.62	11.5718
64.84	2.39818
65.06	9.34609
65.28	7.13538
65.5	12.6282
65.72	11.4777
65.94	6.56989
66.16	8.78618
66.38	5.46271
66.6	5.19694
66.82	0.618955
67.04	8.47373
67.26	10.5143
67.48	5.56112
67.7	6.88011
67.92	1.95465
68.14	12.1572
68.36	4.96295
68.58	11.8609
68.8	0.157222
69.02	1.81565
69.24	8.61872
69.46	6.51956
69.68	0.594358
69.9	5.90022
70.12	7.78037
70.34	10.6046
70.56	1.44199
70.78	0.650319
71	7.14254
71.22	12.2406
71.44	7.29756
71.66	1.41449
71.88	1.50192
72.1	5.5252
72.32	6.31834
72.54	12.4124
72.76	5.41406
72.98	3.37164
73.2	5.26116
73.42	6.92537
73.64	0.792538
73.86	14.3345
74.08	5.45317
74.3	2.53635
74.52	11.5074
74.74	3.48767
74.96	10.3927
75.18	5.79703
75.4	4.06086
75.62	2.63942
75.84	4.53959
76.06	3.35948
76.28	10.2982
76.5	8.26054
76.72	6.2181
76.94	6.07998
77.16	2.95126
77.38	0.01402
77.6	7.79906
77.82	2.49787
78.04	9.2476
78.26	10.2212
78.48	6.07765
78.7	7.12183
78.92	3.96633
79.14	13.2946
79.36	0.646576
79.58	13.4569
79.8	1.4503
80.02	5.30221
80.24	1.48754
80.46	6.1828
80.68	7.19857
80.9	9.46832
81.12	12.6899
81.34	2.87534
81.56	8.66275
81.78	5.76479
82	9.68152
82.22	0.315655
82.44	2.21416
82.66	5.7316
82.88	5.96534
83.1	5.90973
83.32	0.363434
83.54	5.6936
83.76	4.61148
83.98	5.46472
84.2	0.308733
84.42	9.24318
84.64	6.13139
84.86	0.068172
85.08	10.2236
85.3	7.10751
85.52	6.19308
85.74	6.10979
85.96	9.88368
86.18	7.82254
86.4	10.8957
86.62	1.82469
86.84	7.28581
87.06	0.582728
87.28	3.80456
87.5	3.85371
87.72	2.87851
87.94	8.38366
88.16	6.55688
88.38	11.8282
88.6	9.91973
88.82	2.92489
89.04	7.95712
89.26	4.20093
89.48	3.45186
89.7	0.994329
89.92	10.6539
