Measurement: Powder, Xray Data XY Processed
Mineral: Nitratine
Rruff sample: R050658
Ideal chemistry: NaN^5+^O_3_
Locality: Peru
Source: University of Arizona Mineral Museum
Description: Group of colorless crystals
Diffraction sample description: Powder
Measured chemistry: Na_0.92_N_1.00_O_2.96_ ; N not measured but estimated by difference and stoichiometry
Cell parameters: a: 5.06953(8) b: 5.06953(8) c: 16.8274(5) alpha: 90. beta: 90. gamma: 120. volume: 374.52(1) crystal system: hexagonal
x	intensity
5	0
5.22	7.204
5.44	16.56
5.66	1.845
5.88	9.532
6.1	8.772
6.32	1.769
6.54	20.224
6.76	3.509
6.98	9.444
7.2	6.357
7.42	0.321
7.64	3.721
7.86	4.83
8.08	1.968
8.3	5.049
8.52	3.553
8.74	8.966
8.96	6.358
9.18	0.088
9.4	0.802
9.62	4.027
9.84	0.265
10.06	8.817
10.28	3.817
10.5	5.954
10.72	6.878
10.94	4.919
11.16	4.768
11.38	1.013
11.6	4.046
11.82	3.059
12.04	9.245
12.26	2.526
12.48	3.747
12.7	10.62
12.92	17.432
13.14	4.316
13.36	4.188
13.58	4.287
13.8	1.083
14.02	0.072
14.24	5.921
14.46	7.813
14.68	0.33
14.9	2.532
15.12	7.512
15.34	7.42
15.56	12.435
15.78	0.721
16	2.473
16.22	5.376
16.44	0.46
16.66	11.318
16.88	2.999
17.1	1.827
17.32	7.672
17.54	0.657
17.76	4.738
17.98	15.437
18.2	1.033
18.42	4.801
18.64	0.12
18.86	0.508
19.08	7.277
19.3	6.663
19.52	4.381
19.74	8.016
19.96	5.482
20.18	0.009
20.4	1.966
20.62	6.484
20.84	7.081
21.06	9.629
21.28	6.41
21.5	8.743
21.72	2.374
21.94	5.065
22.16	5.987
22.38	3.974
22.6	0.269
22.82	146.355
23.04	0.087
23.26	0.74
23.48	1.875
23.7	3.037
23.92	0.731
24.14	10.614
24.36	8.606
24.58	4.449
24.8	14.294
25.02	4.345
25.24	3.513
25.46	5.211
25.68	4.372
25.9	0.753
26.12	0.675
26.34	22.018
26.56	29.063
26.78	9.984
27	5.784
27.22	5.523
27.44	0.227
27.66	0.277
27.88	3.412
28.1	5.641
28.32	6.905
28.54	9.941
28.76	12.193
28.98	10.526
29.2	60.426
29.42	2670.29
29.64	65.638
29.86	4.156
30.08	15.904
30.3	0.676
30.52	0.148
30.74	0.505
30.96	13.605
31.18	1.065
31.4	6.587
31.62	12.117
31.84	191.586
32.06	42.777
32.28	0.943
32.5	14.564
32.72	10.005
32.94	1.461
33.16	0.749
33.38	9.842
33.6	5.722
33.82	11.553
34.04	8.647
34.26	4.12
34.48	6.563
34.7	4.772
34.92	7.804
35.14	0.835
35.36	95.972
35.58	17.038
35.8	0.777
36.02	0.198
36.24	0.195
36.46	5.123
36.68	10.593
36.9	11.964
37.12	1.468
37.34	4.57
37.56	2.614
37.78	2.127
38	3.775
38.22	4.698
38.44	0.321
38.66	5.329
38.88	62.479
39.1	238.616
39.32	14.496
39.54	9.763
39.76	3.644
39.98	5.369
40.2	4.728
40.42	4.659
40.64	0.919
40.86	0.194
41.08	0.367
41.3	6.691
41.52	0.434
41.74	16.076
41.96	6.693
42.18	0.221
42.4	13.245
42.62	93.485
42.84	8.792
43.06	4.047
43.28	0.57
43.5	0.222
43.72	1.806
43.94	7.446
44.16	1.282
44.38	4.638
44.6	1.561
44.82	1.33
45.04	2.539
45.26	3.53
45.48	4.228
45.7	0.038
45.92	0.028
46.14	0.044
46.36	3.064
46.58	12.934
46.8	17.145
47.02	0.501
47.24	1.885
47.46	6.323
47.68	22.037
47.9	269.284
48.12	57.887
48.34	104.031
48.56	28.025
48.78	1.235
49	0.426
49.22	7.743
49.44	6.72
49.66	6.471
49.88	13.585
50.1	0.061
50.32	5.329
50.54	5.016
50.76	1.028
50.98	6.409
51.2	9.088
51.42	9.379
51.64	4.48
51.86	8.563
52.08	1.816
52.3	1.042
52.52	0.151
52.74	3.207
52.96	10.398
53.18	4.623
53.4	8.456
53.62	2.306
53.84	6.448
54.06	11.486
54.28	4.494
54.5	0.16
54.72	1.28
54.94	2.062
55.16	4.681
55.38	11.331
55.6	45.811
55.82	9.869
56.04	0.314
56.26	4.983
56.48	59.806
56.7	6.568
56.92	6.443
57.14	0.104
57.36	1.555
57.58	7.85
57.8	0.203
58.02	0.969
58.24	4.052
58.46	6.139
58.68	3.672
58.9	11.565
59.12	10.527
59.34	3.264
59.56	16.258
59.78	10.455
60	20.194
60.22	2.984
60.44	6.163
60.66	0.389
60.88	5.797
61.1	15.634
61.32	2.328
61.54	11.802
61.76	23.581
61.98	1.827
62.2	5.998
62.42	12.001
62.64	5.042
62.86	0.544
63.08	3.204
63.3	6.312
63.52	28.981
63.74	11.795
63.96	0.525
64.18	0.531
64.4	1.818
64.62	1.324
64.84	4.665
65.06	2.003
65.28	3.508
65.5	5.328
65.72	0.509
65.94	0.106
66.16	3.582
66.38	8.843
66.6	30.506
66.82	38.968
67.04	3.83
67.26	0.103
67.48	5.195
67.7	2.388
67.92	8.69
68.14	4.18
68.36	4.578
68.58	4.744
68.8	5.876
69.02	5.991
69.24	0.643
69.46	3.726
69.68	1.557
69.9	6.68
70.12	2.133
70.34	1.533
70.56	0.044
70.78	0.178
71	0.749
71.22	2.595
71.44	1.694
71.66	0.399
71.88	5.666
72.1	3.735
72.32	0.156
72.54	13.899
72.76	6.557
72.98	7.206
73.2	8.198
73.42	0.499
73.64	1.506
73.86	3.505
74.08	3.73
74.3	0.336
74.52	9.775
74.74	3.995
74.96	3.827
75.18	0.025
75.4	2.232
75.62	0.319
75.84	0.463
76.06	7.787
76.28	5.07
76.5	5.991
76.72	9.027
76.94	0.092
77.16	2.86
77.38	4.028
77.6	6.895
77.82	6.582
78.04	7.239
78.26	0.102
78.48	5.494
78.7	7.368
78.92	3.656
79.14	4.807
79.36	15.246
79.58	1.089
79.8	3.905
80.02	6.895
80.24	8.709
80.46	9.534
80.68	2.423
80.9	5.366
81.12	0.114
81.34	8.888
81.56	15.616
81.78	3.161
82	2.265
82.22	7.63
82.44	21.083
82.66	25.221
82.88	5.513
83.1	0.106
83.32	14.611
83.54	3.889
83.76	10.08
83.98	4.447
84.2	3.629
84.42	0.05
84.64	3.131
84.86	7.962
85.08	0.038
85.3	3.794
85.52	2.845
85.74	2.826
85.96	6.939
86.18	3.056
86.4	6.188
86.62	4.198
86.84	0.118
87.06	4.203
87.28	0.012
87.5	1.481
87.72	3.752
87.94	0.137
88.16	2.134
88.38	1.149
88.6	1.179
88.82	0.252
89.04	0.062
89.26	5.735
89.48	1.605
89.7	2.441
89.92	0.952
