Measurement: Powder, Xray Data XY Processed
Mineral: Norbergite
Rruff sample: R050280
Ideal chemistry: Mg_3_SiO_4_F_2_
Locality: Sterling mine, Ogdensburg, New Jersey, USA
Source: Marcus Origlieri
Description: Brownish-orange granular
Diffraction sample description: Powder
Measured chemistry: (Mg_0.993_Fe_0.006_Ca_0.001_)_3_(SiO_4_)(F_0.704_OH_0.296_)_2_
Cell parameters: a: 4.7110(2) b: 10.2728(3) c: 8.7674(4) alpha: 90 beta: 90 gamma: 90 volume: 424.29(2) crystal system: orthorhombic
x	intensity
5	0
5.22	8.79122
5.44	3.32606
5.66	18.546
5.88	14.4187
6.1	10.734
6.32	19.1375
6.54	16.1351
6.76	8.31785
6.98	3.62928
7.2	13.9914
7.42	7.49915
7.64	8.9821
7.86	9.34907
8.08	2.6554
8.3	0.604647
8.52	5.67898
8.74	8.17512
8.96	11.3867
9.18	2.61491
9.4	2.74152
9.62	10.8212
9.84	58.6329
10.06	7.96382
10.28	7.50934
10.5	59.5721
10.72	2.70323
10.94	5.33415
11.16	6.2637
11.38	4.30995
11.6	6.26197
11.82	14.2449
12.04	8.30859
12.26	8.38186
12.48	3.38891
12.7	8.13691
12.92	11.3879
13.14	2.59713
13.36	5.92272
13.58	10.2762
13.8	10.7446
14.02	7.14312
14.24	11.6118
14.46	2.83964
14.68	6.97355
14.9	8.41297
15.12	5.57392
15.34	3.53886
15.56	14.8675
15.78	10.9587
16	5.6805
16.22	9.28154
16.44	4.98141
16.66	10.6264
16.88	3.61332
17.1	7.26308
17.32	103.781
17.54	9.72593
17.76	8.896
17.98	10.5492
18.2	16.5402
18.42	2.18303
18.64	17.8602
18.86	6.49589
19.08	8.10143
19.3	8.31128
19.52	9.1837
19.74	17.6777
19.96	5.42286
20.18	13.9123
20.4	12.4126
20.62	18.3001
20.84	12.4567
21.06	0.665461
21.28	6.10888
21.5	41.4119
21.72	7.39138
21.94	9.65013
22.16	11.8953
22.38	9.97186
22.6	8.26499
22.82	6.48226
23.04	3.99465
23.26	2.94139
23.48	3.79701
23.7	3.41978
23.92	2.60366
24.14	6.46662
24.36	15.9359
24.58	7.79128
24.8	2.73485
25.02	4.81939
25.24	8.61464
25.46	0.547956
25.68	17.2777
25.9	13.5834
26.12	0.560314
26.34	15.3745
26.56	21.7385
26.78	84.3399
27	3.2327
27.22	15.9024
27.44	0.937859
27.66	138.115
27.88	3.14101
28.1	2.13966
28.32	3.37972
28.54	23.8556
28.76	8.58806
28.98	19.2458
29.2	313.442
29.42	10.8726
29.64	9.70557
29.86	6.53237
30.08	4.03048
30.3	4.76767
30.52	10.8396
30.74	4.61755
30.96	1.61777
31.18	4.33382
31.4	6.28597
31.62	6.72395
31.84	1.6145
32.06	4.07483
32.28	19.7733
32.5	12.25
32.72	13.7858
32.94	17.9607
33.16	97.4685
33.38	1.80033
33.6	0.789833
33.82	19.8607
34.04	287.981
34.26	3.20656
34.48	3.47476
34.7	17.4474
34.92	1.52591
35.14	7.49751
35.36	11.4746
35.58	3.3064
35.8	0.213111
36.02	11.4206
36.24	17.5859
36.46	81.7499
36.68	0.221759
36.9	6.51333
37.12	17.6172
37.34	91.6639
37.56	1.19846
37.78	17.3807
38	0.932553
38.22	8.6682
38.44	170.685
38.66	17.5899
38.88	1.2665
39.1	2.383
39.32	43.6757
39.54	10.5019
39.76	0.596052
39.98	293.647
40.2	29.8223
40.42	224.411
40.64	36.0202
40.86	5.25407
41.08	10.7317
41.3	23.3227
41.52	3.15399
41.74	1.95774
41.96	10.8133
42.18	2.11193
42.4	4.53878
42.62	7.07382
42.84	2.73924
43.06	5.76212
43.28	0.008425
43.5	0.944338
43.72	6.00913
43.94	7.7682
44.16	5.44189
44.38	0.830228
44.6	10.5188
44.82	7.41247
45.04	16.2666
45.26	8.70213
45.48	1.70173
45.7	0.026066
45.92	6.74433
46.14	0.512799
46.36	5.30572
46.58	14.3088
46.8	15.0182
47.02	17.3066
47.24	26.1718
47.46	3.18905
47.68	5.83663
47.9	5.06505
48.12	10.9536
48.34	13.0481
48.56	8.17856
48.78	4.54484
49	6.47611
49.22	16.1411
49.44	23.3541
49.66	17.6714
49.88	6.05135
50.1	2.75495
50.32	22.5014
50.54	7.88708
50.76	2.07935
50.98	3.31973
51.2	12.3724
51.42	10.9636
51.64	6.50715
51.86	4.03534
52.08	0.427987
52.3	1.2407
52.52	11.0199
52.74	108.678
52.96	136.323
53.18	90.4775
53.4	19.5964
53.62	5.79922
53.84	29.0006
54.06	1.53329
54.28	3.00923
54.5	3.43628
54.72	2.86791
54.94	8.41878
55.16	4.69529
55.38	13.0723
55.6	11.9508
55.82	10.7236
56.04	4.18487
56.26	3.07873
56.48	0.676204
56.7	10.3757
56.92	9.29347
57.14	12.0526
57.36	7.71581
57.58	16.8341
57.8	60.6828
58.02	12.678
58.24	22.3581
58.46	28.7205
58.68	11.275
58.9	2.52933
59.12	9.89872
59.34	1.88436
59.56	1.00422
59.78	6.1866
60	9.94498
60.22	5.67169
60.44	5.7477
60.66	11.2341
60.88	6.2314
61.1	7.22163
61.32	10.8907
61.54	7.457
61.76	5.09032
61.98	5.75195
62.2	7.29775
62.42	2.90831
62.64	29.6569
62.86	129.143
63.08	65.0923
63.3	5.70457
63.52	10.0357
63.74	24.5167
63.96	8.08371
64.18	4.74271
64.4	6.16738
64.62	4.60195
64.84	17.1257
65.06	8.56482
65.28	12.7908
65.5	3.19445
65.72	9.26005
65.94	0.584223
66.16	1.21857
66.38	13.7062
66.6	3.41555
66.82	8.9003
67.04	12.2719
67.26	1.27923
67.48	5.10055
67.7	20.0368
67.92	0.839007
68.14	1.72449
68.36	12.3536
68.58	14.1539
68.8	5.95468
69.02	12.1177
69.24	7.6364
69.46	3.9451
69.68	16.0785
69.9	7.19501
70.12	0.571157
70.34	6.61952
70.56	16.2929
70.78	9.83724
71	2.2013
71.22	9.47863
71.44	13.2056
71.66	5.19444
71.88	8.53767
72.1	8.70048
72.32	5.02952
72.54	12.1576
72.76	2.20431
72.98	6.77998
73.2	9.82269
73.42	9.6793
73.64	7.69872
73.86	13.1982
74.08	5.65153
74.3	11.7042
74.52	4.07819
74.74	2.63586
74.96	8.78396
75.18	6.9744
75.4	10.1923
75.62	11.2808
75.84	2.39494
76.06	2.45246
76.28	1.38169
76.5	4.29962
76.72	1.25507
76.94	5.81473
77.16	12.3518
77.38	11.1962
77.6	4.14561
77.82	15.6014
78.04	9.58809
78.26	3.40404
78.48	6.48581
78.7	4.55051
78.92	2.62182
79.14	6.59483
79.36	1.57693
79.58	2.86401
79.8	3.04225
80.02	2.98388
80.24	2.56008
80.46	9.33702
80.68	3.31439
80.9	4.30548
81.12	6.54224
81.34	7.7413
81.56	9.84187
81.78	12.9698
82	4.60062
82.22	0.53302
82.44	0.554401
82.66	6.66866
82.88	2.71074
83.1	0.247293
83.32	10.3565
83.54	6.33317
83.76	1.26496
83.98	4.3095
84.2	8.34168
84.42	9.72809
84.64	7.95853
84.86	6.95503
85.08	1.06801
85.3	4.1036
85.52	8.55396
85.74	5.70125
85.96	1.5971
86.18	14.2251
86.4	9.07712
86.62	4.92826
86.84	7.34132
87.06	10.3955
87.28	11.1053
87.5	9.16182
87.72	3.47026
87.94	2.7464
88.16	5.79892
88.38	2.10905
88.6	3.53161
88.82	4.93525
89.04	7.22674
89.26	8.88568
89.48	6.86228
89.7	0.263676
89.92	10.7129
