Measurement: Powder, Xray Data XY Processed
Mineral: Nordstrandite
Rruff sample: R050592
Ideal chemistry: Al(OH)_3_
Locality: Cerro Sapo, Cochabamba Department, Bolivia
Source: Marcus Origlieri
Description: Single crystals as colorless radiating clusters and tan thick tabular crystals
Diffraction sample description: Single crystal, powder profile is calculated
Measured chemistry: Al_1.00_(OH)_3_; trace amounts of Fe; H_2_O estimated by difference
Cell parameters: a: 8.690(5) b: 5.065(3) c: 10.217(5) alpha: 109.48(3) beta: 97.44(3) gamma: 88.27(3) volume: 420.3(3) crystal system: triclinic
x	intensity
5	0
5.22	0
5.44	0
5.66	0
5.88	0
6.1	0
6.32	0
6.54	0
6.76	0
6.98	0
7.2	0
7.42	0
7.64	0
7.86	0
8.08	0
8.3	0
8.52	0
8.74	0
8.96	0
9.18	0
9.4	0
9.62	0
9.84	0
10.06	0
10.28	0
10.5	0
10.72	0
10.94	0
11.16	0
11.38	0
11.6	0
11.82	0
12.04	0
12.26	0
12.48	0
12.7	0
12.92	0.067
13.14	0
13.36	0
13.58	0
13.8	0
14.02	0
14.24	0
14.46	0
14.68	0.534
14.9	0
15.12	0
15.34	0
15.56	0
15.78	0
16	0
16.22	0
16.44	0
16.66	0
16.88	0
17.1	0
17.32	0
17.54	0
17.76	0.001
17.98	0
18.2	0
18.42	0.001
18.64	20.525
18.86	0
19.08	0
19.3	0
19.52	0
19.74	0
19.96	0
20.18	0
20.4	0
20.62	17.837
20.84	0
21.06	0.775
21.28	0.045
21.5	0.554
21.72	0
21.94	0
22.16	0
22.38	0
22.6	0
22.82	0.03
23.04	0.306
23.26	0
23.48	0.01
23.7	0
23.92	0
24.14	0
24.36	0
24.58	0
24.8	5.911
25.02	0
25.24	0
25.46	0
25.68	0
25.9	0.003
26.12	1.089
26.34	0
26.56	0
26.78	0
27	0
27.22	0
27.44	0
27.66	0
27.88	0
28.1	0.012
28.32	0
28.54	0.056
28.76	0.003
28.98	0
29.2	0
29.42	0
29.64	2.325
29.86	0
30.08	0
30.3	0
30.52	0.002
30.74	0
30.96	0
31.18	0.003
31.4	2.553
31.62	0
31.84	0
32.06	0
32.28	0.005
32.5	0.003
32.72	0
32.94	0.103
33.16	0.871
33.38	0
33.6	0.023
33.82	0.046
34.04	0
34.26	0
34.48	0
34.7	0
34.92	0
35.14	0
35.36	0
35.58	0
35.8	0
36.02	0.703
36.24	4.187
36.46	0.045
36.68	1.33
36.9	0.051
37.12	0.11
37.34	0.351
37.56	0.487
37.78	3.849
38	0
38.22	0
38.44	0
38.66	0
38.88	0.415
39.1	0
39.32	0
39.54	0.672
39.76	0.001
39.98	6.88
40.2	0
40.42	0
40.64	0
40.86	0.199
41.08	0.278
41.3	0.058
41.52	0
41.74	0
41.96	0.005
42.18	0.238
42.4	0.081
42.62	0
42.84	0.041
43.06	0.012
43.28	0
43.5	0.068
43.72	0.163
43.94	0.059
44.16	0
44.38	0
44.6	0
44.82	0.008
45.04	16.898
45.26	0.038
45.48	0
45.7	0.254
45.92	0
46.14	0.071
46.36	0.043
46.58	0
46.8	0.833
47.02	0.047
47.24	0.029
47.46	0.144
47.68	0.012
47.9	14.261
48.12	0.197
48.34	0.002
48.56	0.294
48.78	0
49	0
49.22	0
49.44	0
49.66	0
49.88	0.011
50.1	0.075
50.32	0.113
50.54	0
50.76	0.578
50.98	0.098
51.2	0
51.42	9.227
51.64	0.08
51.86	0
52.08	0.028
52.3	0
52.52	0.001
52.74	0.018
52.96	0
53.18	0
53.4	0.005
53.62	0.272
53.84	0.056
54.06	0.757
54.28	0.054
54.5	0
54.72	0.002
54.94	0.138
55.16	1.045
55.38	0.037
55.6	0.02
55.82	0.523
56.04	0.002
56.26	0
56.48	0.235
56.7	0.016
56.92	0.192
57.14	0.304
57.36	0.052
57.58	0.005
57.8	0.041
58.02	1.055
58.24	0.004
58.46	0.041
58.68	0.023
58.9	0.339
59.12	0.514
59.34	0.169
59.56	0.144
59.78	2.329
60	0.495
60.22	0.11
60.44	0
60.66	0.002
60.88	0.003
61.1	0
61.32	1.744
61.54	0.407
61.76	0.007
61.98	0
62.2	0.004
62.42	0.006
62.64	0
62.86	0.004
63.08	0.293
63.3	0.012
63.52	0.662
63.74	0.51
63.96	0
64.18	0.003
64.4	0.016
64.62	0.034
64.84	4.145
65.06	3.709
65.28	0.043
65.5	0.659
65.72	0.389
65.94	0
66.16	0.064
66.38	0.01
66.6	0.001
66.82	0.3
67.04	0.037
67.26	0.004
67.48	0.157
67.7	0.244
67.92	0.323
68.14	0.051
68.36	0.313
68.58	0.125
68.8	0.07
69.02	0.042
69.24	0.049
69.46	0.604
69.68	0.41
69.9	0.007
70.12	0.256
70.34	0.151
70.56	0.011
70.78	0.181
71	0.121
71.22	0.019
71.44	0.1
71.66	0.043
71.88	0.01
72.1	0.008
72.32	0.089
72.54	2.008
72.76	0.831
72.98	0.026
73.2	0.126
73.42	0.049
73.64	0
73.86	0
74.08	0.122
74.3	0.062
74.52	0.241
74.74	0.115
74.96	0.008
75.18	0.022
75.4	0.01
75.62	0.006
75.84	0.003
76.06	0.041
76.28	1.244
76.5	0.557
76.72	0.006
76.94	0.334
77.16	0.163
77.38	0
77.6	0
77.82	0.041
78.04	1.223
78.26	0.545
78.48	0.006
78.7	0.163
78.92	0.205
79.14	0.169
79.36	0.033
79.58	0.089
79.8	0.077
80.02	0.009
80.24	0.165
80.46	0.156
80.68	0.108
80.9	0.249
81.12	0.145
81.34	0.041
81.56	0.196
81.78	0.279
82	0.108
82.22	0.261
82.44	0.062
82.66	0.007
82.88	0.085
83.1	0.451
83.32	0.149
83.54	0.063
83.76	0.107
83.98	0.005
84.2	0.002
84.42	0.003
84.64	0.031
84.86	0.214
85.08	0.106
85.3	0.021
85.52	0.189
85.74	0.052
85.96	0.052
86.18	0.065
86.4	0.013
86.62	0.002
86.84	0.015
87.06	0.022
87.28	0.011
87.5	0.023
87.72	0.042
87.94	0.141
88.16	0
88.38	0.029
88.6	0.091
88.82	0.052
89.04	0.029
89.26	0.009
89.48	0.002
89.7	0.088
89.92	0.017
