Measurement: Powder, Xray Data XY Processed
Mineral: Northupite
Rruff sample: R060156
Ideal chemistry: Na_3_Mg(CO_3_)_2_Cl
Locality: Searles Lake, San Bernardino County, California, USA
Source: Marcus Origlieri
Description: Gray octahedron
Diffraction sample description: Powder
Measured chemistry: (Na_2.98_Ca_0.02_)_Î£=3_Mg_1.00_(CO_3_)_2_Cl_1.00_
Cell parameters: a: 14.0546(1) b: 14.0546(1) c: 14.0546(1) alpha: 90 beta: 90 gamma: 90 volume: 2776.25(8) crystal system: cubic
x	intensity
5	0
5.22	6.21098
5.44	10.2075
5.66	12.61
5.88	14.5434
6.1	6.62443
6.32	2.61933
6.54	13.8807
6.76	3.06781
6.98	7.34936
7.2	2.11284
7.42	7.82324
7.64	15.3005
7.86	10.0233
8.08	2.87927
8.3	3.5123
8.52	11.3081
8.74	2.63396
8.96	10.9656
9.18	4.15101
9.4	7.09609
9.62	6.70623
9.84	17.3046
10.06	6.1201
10.28	6.81716
10.5	7.28172
10.72	18.1378
10.94	699.969
11.16	15.7302
11.38	10.6131
11.6	7.40785
11.82	8.49497
12.04	13.3251
12.26	1.2207
12.48	2.96805
12.7	2.72281
12.92	8.58039
13.14	2.11129
13.36	1.20514
13.58	2.83211
13.8	14.6984
14.02	0.548517
14.24	8.24617
14.46	7.12354
14.68	0.954521
14.9	9.37107
15.12	6.18416
15.34	16.4305
15.56	10.6993
15.78	8.96188
16	10.0587
16.22	5.77423
16.44	21.8031
16.66	5.53886
16.88	15.3859
17.1	7.24082
17.32	0.805786
17.54	10.1818
17.76	17.5517
17.98	11.9258
18.2	6.92388
18.42	13.1753
18.64	2.70626
18.86	1.83858
19.08	9.17883
19.3	9.71041
19.52	8.97316
19.74	6.15663
19.96	11.0518
20.18	8.24219
20.4	4.19347
20.62	8.12451
20.84	13.1803
21.06	14.2613
21.28	5.32535
21.5	3.07952
21.72	2.59586
21.94	37.21
22.16	12.4218
22.38	7.51153
22.6	2.61787
22.82	13.8343
23.04	5.17688
23.26	10.3005
23.48	9.6052
23.7	8.43383
23.92	3.73938
24.14	1.50865
24.36	0.718733
24.58	9.95004
24.8	6.93777
25.02	4.6151
25.24	9.15392
25.46	17.8817
25.68	0.867682
25.9	8.98977
26.12	11.0134
26.34	9.65598
26.56	1.29763
26.78	9.95499
27	7.87302
27.22	3.23628
27.44	19.8706
27.66	176.3
27.88	7.16733
28.1	7.8202
28.32	16.4823
28.54	6.974
28.76	15.7175
28.98	12.4725
29.2	6.37903
29.42	15.0286
29.64	25.2075
29.86	25.9434
30.08	5.66608
30.3	5.98499
30.52	3.68043
30.74	10.4452
30.96	20.1046
31.18	156.139
31.4	15.9242
31.62	7.83637
31.84	1.39277
32.06	2.05368
32.28	7.0705
32.5	2.11708
32.72	6.44842
32.94	18.941
33.16	212.296
33.38	13.516
33.6	17.9494
33.82	3.15015
34.04	11.6198
34.26	8.16985
34.48	2.40766
34.7	10.1484
34.92	2.35783
35.14	7.11717
35.36	8.83252
35.58	13.0331
35.8	10.1975
36.02	17.2282
36.24	408.297
36.46	12.409
36.68	14.2136
36.9	2.0149
37.12	6.03875
37.34	10.0632
37.56	12.727
37.78	6.85319
38	23.1151
38.22	8.21439
38.44	8.06831
38.66	10.3
38.88	7.38086
39.1	1.54104
39.32	19.7297
39.54	0.378908
39.76	20.5703
39.98	0.860928
40.2	5.65207
40.42	1.65843
40.64	11.2035
40.86	4.39618
41.08	6.68342
41.3	11.5282
41.52	16.3309
41.74	1.99175
41.96	0.013693
42.18	44.4363
42.4	6.78256
42.62	96.7653
42.84	40.1016
43.06	10.2616
43.28	12.5349
43.5	0.838417
43.72	1.98803
43.94	1.35482
44.16	5.81913
44.38	8.31073
44.6	9.43872
44.82	14.6405
45.04	1.9075
45.26	8.42226
45.48	7.76573
45.7	13.9624
45.92	10.5441
46.14	48.0586
46.36	12.3133
46.58	9.71347
46.8	6.77309
47.02	11.8597
47.24	8.969
47.46	10.0246
47.68	3.74706
47.9	4.65383
48.12	2.62541
48.34	0.583308
48.56	30.3996
48.78	1.08142
49	4.09022
49.22	2.1342
49.44	4.94117
49.66	4.19016
49.88	14.4241
50.1	2.56159
50.32	2.71675
50.54	0.998916
50.76	11.2017
50.98	7.40663
51.2	1.34594
51.42	1.15589
51.64	8.3606
51.86	8.82148
52.08	37.9164
52.3	13.8665
52.52	5.98674
52.74	11.34
52.96	6.35652
53.18	7.37129
53.4	4.39601
53.62	15.3568
53.84	9.0307
54.06	1.9373
54.28	2.51896
54.5	10.576
54.72	0.630298
54.94	7.70333
55.16	18.2084
55.38	2.13681
55.6	17.9843
55.82	1.898
56.04	12.8706
56.26	5.85877
56.48	14.1018
56.7	35.3043
56.92	6.28767
57.14	66.511
57.36	4.72642
57.58	2.90191
57.8	8.96424
58.02	3.3695
58.24	0.496873
58.46	1.76805
58.68	7.06236
58.9	6.94873
59.12	6.77046
59.34	9.83787
59.56	6.74051
59.78	5.72576
60	4.77008
60.22	6.87594
60.44	7.01476
60.66	3.35336
60.88	9.31217
61.1	6.62299
61.32	3.86946
61.54	4.05357
61.76	7.14834
61.98	9.94228
62.2	0.906536
62.42	0.90824
62.64	10.1528
62.86	2.12992
63.08	4.17373
63.3	8.68314
63.52	7.61125
63.74	3.46615
63.96	8.47968
64.18	8.53961
64.4	3.58751
64.62	6.79081
64.84	8.60057
65.06	25.3081
65.28	9.16029
65.5	7.99055
65.72	1.56231
65.94	2.7264
66.16	12.8111
66.38	14.9984
66.6	1.23058
66.82	5.26807
67.04	3.13285
67.26	3.22104
67.48	10.585
67.7	0.014987
67.92	13.0613
68.14	9.99325
68.36	3.53056
68.58	3.42797
68.8	3.38642
69.02	12.2081
69.24	10.1345
69.46	31.3864
69.68	25.3973
69.9	5.20909
70.12	5.14683
70.34	2.40057
70.56	4.63369
70.78	8.8261
71	6.89938
71.22	4.27454
71.44	0.822043
71.66	0.96002
71.88	4.67591
72.1	4.17023
72.32	15.1341
72.54	7.19415
72.76	9.97304
72.98	8.82329
73.2	1.69876
73.42	8.88489
73.64	6.08928
73.86	12.0766
74.08	5.99754
74.3	1.19645
74.52	9.91384
74.74	7.42562
74.96	10.0799
75.18	3.08041
75.4	9.22087
75.62	4.23013
75.84	8.95943
76.06	9.87042
76.28	7.11201
76.5	2.42735
76.72	21.1046
76.94	8.04308
77.16	5.79335
77.38	4.01433
77.6	10.0849
77.82	5.95355
78.04	5.07923
78.26	8.2859
78.48	7.23708
78.7	11.1825
78.92	3.01219
79.14	9.02538
79.36	2.15438
79.58	7.03921
79.8	0.890475
80.02	4.08881
80.24	2.98783
80.46	1.94327
80.68	9.19446
80.9	15.4412
81.12	20.2269
81.34	11.2391
81.56	4.29352
81.78	3.27486
82	5.2406
82.22	3.39784
82.44	10.2134
82.66	1.51961
82.88	6.71032
83.1	3.40102
83.32	4.16582
83.54	7.13131
83.76	5.3076
83.98	10.2017
84.2	4.97491
84.42	5.01864
84.64	0.943305
84.86	0.871846
85.08	11.3625
85.3	6.35399
85.52	8.67551
85.74	2.92748
85.96	7.99449
86.18	4.01495
86.4	10.0881
86.62	1.22761
86.84	5.1286
87.06	2.97083
87.28	0.926944
87.5	6.13814
87.72	6.13134
87.94	3.62869
88.16	6.62008
88.38	7.46938
88.6	2.43808
88.82	13.4359
89.04	11.5658
89.26	7.67883
89.48	6.649
89.7	4.86372
89.92	1.9586
