Measurement: Powder, Xray Data XY Processed
Mineral: Olivenite
Rruff sample: R050532
Ideal chemistry: Cu^2+^_2_As^5+^O_4_(OH)
Locality: Tsumeb mine, Tsumeb, Otavi District, Oshikoto, Namibia
Source: University of Arizona Mineral Museum
Description: Dark green prismatic crystals on botryoidal bayldonite R050670
Diffraction sample description: Powder
Measured chemistry: (Cu_0.99_Zn_0.01_)_2_(As_1.00_O_4_)(OH)
Cell parameters: a: 8.6115(4) b: 8.230(1) c: 5.9382(7) alpha: 90.12(2) beta: 90 gamma: 90 volume: 420.87(8) crystal system: monoclinic
x	intensity
5	0
5.22	16.611
5.44	1.891
5.66	12.316
5.88	10.88
6.1	5.121
6.32	10.626
6.54	13.071
6.76	20.533
6.98	24.028
7.2	25.714
7.42	9.018
7.64	22.095
7.86	13.046
8.08	32.867
8.3	20.909
8.52	20.725
8.74	19.219
8.96	2.901
9.18	19.206
9.4	20.581
9.62	1.759
9.84	5.553
10.06	20.432
10.28	15.036
10.5	31.169
10.72	2.739
10.94	1.816
11.16	4.244
11.38	14.56
11.6	2.956
11.82	22.564
12.04	16.79
12.26	1.631
12.48	27.084
12.7	20.89
12.92	30.608
13.14	32.157
13.36	20.252
13.58	25.113
13.8	7.783
14.02	21.509
14.24	24.436
14.46	31.784
14.68	20.394
14.9	459.079
15.12	23.167
15.34	14.732
15.56	12.053
15.78	12.823
16	7.156
16.22	30.096
16.44	12.758
16.66	2.03
16.88	8.692
17.1	23.179
17.32	3.47
17.54	14.208
17.76	0.454
17.98	31.859
18.2	447.561
18.42	768.532
18.64	35.343
18.86	12.335
19.08	28.415
19.3	7.596
19.52	1.901
19.74	19.499
19.96	8.768
20.18	0.811
20.4	4.962
20.62	58.647
20.84	16.819
21.06	108.235
21.28	59.263
21.5	11.169
21.72	13.64
21.94	4.646
22.16	8.465
22.38	24.461
22.6	4.812
22.82	12.763
23.04	5.088
23.26	85.611
23.48	23.144
23.7	12.239
23.92	38.336
24.14	10.338
24.36	9.518
24.58	22.258
24.8	19.513
25.02	24.406
25.24	14.646
25.46	19.082
25.68	27.573
25.9	10.538
26.12	12.419
26.34	10.904
26.56	22.967
26.78	25.311
27	16.945
27.22	24.416
27.44	7.143
27.66	13.706
27.88	4.3
28.1	10.159
28.32	19.373
28.54	3.736
28.76	4.419
28.98	13.437
29.2	5.436
29.42	16.598
29.64	2.606
29.86	39.392
30.08	551.29
30.3	30.59
30.52	18.255
30.74	11.533
30.96	8.077
31.18	0.617
31.4	38.817
31.62	8.214
31.84	14.423
32.06	37.608
32.28	19.218
32.5	22.547
32.72	8.463
32.94	36.44
33.16	79.297
33.38	4.273
33.6	52.708
33.82	926.897
34.04	17.608
34.26	91.451
34.48	21.713
34.7	118.307
34.92	15.662
35.14	1.942
35.36	18.381
35.58	6.887
35.8	16.989
36.02	79.341
36.24	36.368
36.46	222.899
36.68	41.201
36.9	44.964
37.12	16.293
37.34	135.048
37.56	241.189
37.78	25.84
38	5.314
38.22	23.61
38.44	254.309
38.66	16.539
38.88	50.876
39.1	14.65
39.32	7.98
39.54	7.378
39.76	10.167
39.98	21.648
40.2	12.588
40.42	7.073
40.64	18.936
40.86	11.12
41.08	30.283
41.3	2.237
41.52	30.191
41.74	0.472
41.96	44.064
42.18	13.088
42.4	29.08
42.62	8.023
42.84	18.302
43.06	5.14
43.28	16.04
43.5	47.269
43.72	3.376
43.94	4.258
44.16	9.34
44.38	6.607
44.6	10.619
44.82	13.003
45.04	11.235
45.26	24.196
45.48	30.212
45.7	20.652
45.92	12.912
46.14	47.677
46.36	27.661
46.58	10.815
46.8	2.656
47.02	4.055
47.24	75.912
47.46	11.517
47.68	21.065
47.9	47.105
48.12	39.943
48.34	54.602
48.56	51.822
48.78	31.076
49	25.116
49.22	3.574
49.44	46.433
49.66	5.907
49.88	29.808
50.1	11.915
50.32	2.655
50.54	2.78
50.76	25.607
50.98	16.901
51.2	7.908
51.42	26.192
51.64	7.531
51.86	0.754
52.08	7.446
52.3	16.439
52.52	52.747
52.74	17.546
52.96	29.733
53.18	18.345
53.4	10.457
53.62	2.902
53.84	24.834
54.06	15.015
54.28	39.938
54.5	34.599
54.72	20.807
54.94	23.586
55.16	9.892
55.38	33.092
55.6	26.079
55.82	85.283
56.04	29.067
56.26	3.782
56.48	59.638
56.7	132.469
56.92	57.759
57.14	15.926
57.36	89.344
57.58	72.375
57.8	66.72
58.02	2.511
58.24	10.315
58.46	33.966
58.68	165.845
58.9	22.976
59.12	33.236
59.34	38.911
59.56	7.01
59.78	7.34
60	3.227
60.22	15.459
60.44	16.658
60.66	19.363
60.88	20.434
61.1	6.915
61.32	32.88
61.54	7.909
61.76	0.638
61.98	23.994
62.2	13.36
62.42	90.376
62.64	36.58
62.86	15.262
63.08	3.804
63.3	22.174
63.52	16.209
63.74	46.128
63.96	36.056
64.18	9.648
64.4	14.046
64.62	19.478
64.84	7.148
65.06	22.835
65.28	19.732
65.5	1.033
65.72	11.421
65.94	19.333
66.16	3.382
66.38	17.426
66.6	18.823
66.82	0.175
67.04	34.664
67.26	17.239
67.48	13.563
67.7	12.335
67.92	36.426
68.14	0.275
68.36	19.138
68.58	4.174
68.8	24.612
69.02	11.18
69.24	52.106
69.46	41.167
69.68	2.505
69.9	4.885
70.12	21.226
70.34	5.442
70.56	28.787
70.78	57.056
71	45.613
71.22	28.81
71.44	15.582
71.66	23.682
71.88	12.583
72.1	35.691
72.32	15.85
72.54	36.206
72.76	33.761
72.98	16.452
73.2	66.113
73.42	30.945
73.64	27.447
73.86	2.015
74.08	36.535
74.3	15.499
74.52	15.124
74.74	8.795
74.96	6.134
75.18	20.483
75.4	16.326
75.62	15.67
75.84	28.986
76.06	79.836
76.28	47.061
76.5	9.565
76.72	12.633
76.94	26.585
77.16	10.573
77.38	22.511
77.6	4.145
77.82	19.433
78.04	24.728
78.26	11.73
78.48	6.025
78.7	0.798
78.92	11.327
79.14	17.041
79.36	0.899
79.58	1.197
79.8	16.245
80.02	13.985
80.24	1.864
80.46	22.714
80.68	25.747
80.9	27.754
81.12	21.757
81.34	3.255
81.56	19.789
81.78	20.074
82	8.117
82.22	19.381
82.44	18.974
82.66	24.658
82.88	41.054
83.1	8.056
83.32	26.739
83.54	16.479
83.76	17.663
83.98	5.895
84.2	8.595
84.42	7.892
84.64	27.007
84.86	24.784
85.08	9.127
85.3	16.611
85.52	27.722
85.74	27.341
85.96	26.43
86.18	20.011
86.4	39.753
86.62	34.201
86.84	23.823
87.06	38.039
87.28	8.849
87.5	18.248
87.72	16.378
87.94	42.225
88.16	15.381
88.38	21.961
88.6	23.958
88.82	11.534
89.04	20.202
89.26	13.965
89.48	49.564
89.7	15.267
89.92	10.238
