Measurement: Powder, Xray Data XY Processed
Mineral: Olivenite
Rruff sample: R040181
Ideal chemistry: Cu^2+^_2_As^5+^O_4_(OH)
Locality: Majuba Hill, Pershing County, Nevada, USA
Source: University of Arizona Mineral Museum
Description: Greenish blue prismatic, untwinned. Structure for this sample reported in Li et al (2008).
Diffraction sample description: Powder
Measured chemistry: (Cu_0.98_[box]_0.02_)_2_(As_0.90_P_0.10_O_4_)(OH)_0.92_
Cell parameters: a: 8.2212(8) b: 8.6062(4) c: 5.9335(4) alpha: 90 beta: 90.11(1) gamma: 90 volume: 419.81(5) crystal system: monoclinic
x	intensity
4.76	0
5.21	11.1776
5.43	3.90516
5.65	20.884
5.86	9.24142
6.08	8.93449
6.3	19.0647
6.52	16.9879
6.74	3.90996
6.96	2.83629
7.18	29.167
7.4	16.2472
7.62	16.4003
7.84	14.0838
8.06	38.808
8.28	11.0609
8.5	6.88563
8.72	18.3195
8.94	24.606
9.16	14.2953
9.38	3.14094
9.6	17.5999
9.82	31.3798
10.04	21.6457
10.26	19.7176
10.48	23.4648
10.7	23.9503
10.92	18.0608
11.14	2.83344
11.36	14.2721
11.58	12.1609
11.8	2.70422
12.02	16.4423
12.24	11.7835
12.46	18.0828
12.68	30.2041
12.9	15.3325
13.12	25.6931
13.34	3.53631
13.56	9.58115
13.78	9.82845
14	9.3904
14.22	8.86438
14.44	33.1114
14.66	19.1477
14.88	257.512
15.1	60.0746
15.32	4.89864
15.54	6.60299
15.76	2.05882
15.98	20.3648
16.2	15.0891
16.42	27.8144
16.64	35.2266
16.86	23.5922
17.08	19.2179
17.3	22.6021
17.53	16.892
17.75	4.23599
17.97	15.3828
18.19	1021.3
18.41	311.632
18.63	33.1807
18.85	28.3013
19.07	18.6699
19.29	43.2276
19.51	16.5205
19.73	6.62714
19.95	6.7215
20.17	24.5578
20.39	27.5176
20.61	47.1534
20.83	34.8895
21.05	67.967
21.27	184.065
21.49	19.3833
21.71	26.8975
21.93	7.99034
22.15	17.2005
22.37	18.3829
22.59	14.5419
22.81	15.4756
23.03	10.6969
23.25	18.9842
23.47	68.7014
23.69	13.7481
23.91	1.94162
24.13	29.9936
24.35	28.05
24.57	24.7408
24.79	22.4372
25.01	23.5826
25.23	11.446
25.45	22.8169
25.67	8.4207
25.89	13.4438
26.11	9.17844
26.33	26.8863
26.55	28.7856
26.77	10.7789
26.99	21.2291
27.21	14.4293
27.43	0.89566
27.65	20.5536
27.87	27.5074
28.09	23.1207
28.31	13.3317
28.53	9.52076
28.75	8.57159
28.97	18.9721
29.19	9.22118
29.41	28.1924
29.63	20.8437
29.85	26.1302
30.07	1100.82
30.29	61.8314
30.51	25.8857
30.73	10.4393
30.95	17.391
31.17	12.8956
31.39	22.6492
31.61	4.29721
31.83	30.7797
32.05	3.81673
32.27	13.8527
32.49	24.5023
32.71	3.83145
32.93	34.6681
33.15	182.142
33.37	21.3836
33.59	31.1035
33.81	554.991
34.03	21.2463
34.25	12.0769
34.47	145.104
34.69	26.6272
34.91	36.428
35.13	6.85025
35.35	4.80337
35.57	16.1944
35.79	18.2497
36.01	19.4597
36.23	99.2387
36.45	299.829
36.67	64.5809
36.89	93.2301
37.11	32.8408
37.33	183.875
37.55	168.287
37.77	131.909
37.99	0.646431
38.21	4.97303
38.43	137.873
38.65	33.1568
38.87	34.8026
39.09	41.8053
39.31	26.1278
39.53	23.0763
39.75	1.75112
39.97	6.9216
40.19	16.2855
40.41	23.4131
40.63	16.8585
40.85	20.1472
41.07	6.61978
41.29	23.2737
41.51	27.5885
41.73	9.90813
41.95	43.5548
42.17	25.9231
42.39	0.272873
42.61	22.1458
42.83	15.1577
43.05	24.0488
43.27	31.8376
43.49	37.176
43.71	6.69495
43.93	21.1917
44.15	5.5925
44.37	20.3553
44.59	12.7817
44.82	28.3037
45.04	15.8759
45.26	23.2471
45.48	34.4776
45.7	20.9705
45.92	41.8459
46.14	23.8736
46.36	47.7528
46.58	17.3328
46.8	8.91577
47.02	19.4686
47.24	48.2093
47.46	20.9779
47.68	23.0605
47.9	12.3591
48.12	56.688
48.34	25.8378
48.56	59.1328
48.78	12.0395
49	1.01449
49.22	2.69386
49.44	29.971
49.66	14.3555
49.88	8.77631
50.1	36.9325
50.32	9.2347
50.54	13.959
50.76	7.10133
50.98	15.7676
51.2	29.8953
51.42	2.98411
51.64	22.7434
51.86	33.5829
52.08	9.67122
52.3	16.2177
52.52	81.0144
52.74	41.5422
52.96	13.1351
53.18	5.42161
53.4	4.36537
53.62	10.0031
53.84	21.7169
54.06	0.737747
54.28	17.0312
54.5	69.3146
54.72	22.9157
54.94	12.7472
55.16	6.12862
55.38	3.24479
55.6	9.01775
55.82	105.495
56.04	36.2048
56.26	15.804
56.48	30.2596
56.7	32.7828
56.92	56.1735
57.14	31.8319
57.36	41.0822
57.58	107.224
57.8	45.9846
58.02	2.05212
58.24	2.64664
58.46	53.808
58.68	159.507
58.9	100.536
59.12	32.7807
59.34	79.9657
59.56	6.65196
59.78	4.30609
60	21.3679
60.22	33.5132
60.44	12.9274
60.66	1.37156
60.88	6.48361
61.1	15.6043
61.32	6.52173
61.54	10.1196
61.76	27.0016
61.98	29.0986
62.2	2.84824
62.42	61.5473
62.64	192.746
62.86	40.4146
63.08	10.3415
63.3	19.4404
63.52	23.2618
63.74	6.26607
63.96	54.1046
64.18	14.8997
64.4	25.3614
64.62	14.0997
64.84	9.78016
65.06	10.363
65.28	15.9937
65.5	2.21197
65.72	4.74924
65.94	20.8175
66.16	1.07335
66.38	14.6161
66.6	7.84924
66.82	43.7042
67.04	0.591431
67.26	20.8631
67.48	6.76888
67.7	31.0353
67.92	3.50242
68.14	14.5246
68.36	7.48502
68.58	15.0704
68.8	34.8509
69.02	19.4922
69.24	38.3306
69.46	38.7953
69.68	21.1532
69.9	10.0168
70.12	7.31654
70.34	4.31706
70.56	5.8416
70.78	19.0105
71	110.042
71.22	60.8497
71.44	15.881
71.66	10.2426
71.88	20.3376
72.1	24.5203
72.32	39.4426
72.54	21.6512
72.76	0.762817
72.98	9.87023
73.2	29.447
73.42	46.7039
73.64	41.3812
73.86	32.7118
74.08	18.9576
74.3	32.1008
74.52	13.4959
74.74	1.79293
74.96	9.81108
75.18	19.6017
75.4	21.2041
75.62	33.6033
75.84	15.0861
76.06	25.3401
76.28	16.8694
76.5	12.385
76.72	24.8616
76.94	19.0997
77.16	20.553
77.38	21.0866
77.6	19.8609
77.82	10.3218
78.04	27.9993
78.26	22.353
78.48	0.327271
78.7	15.8826
78.92	7.18984
79.14	7.24176
79.36	20.3315
79.58	4.63129
79.8	23.506
80.02	12.1328
80.24	15.5918
80.46	3.03183
80.68	8.82861
80.9	6.77464
81.12	5.37479
81.34	11.7463
81.56	20.2592
81.78	23.65
82	30.8035
82.22	8.00848
82.44	16.2457
82.66	16.1159
82.88	27.9249
83.1	26.164
83.32	1.50273
83.54	17.5275
83.76	11.7626
83.98	21.7945
84.2	25.7052
84.42	8.4672
84.64	0.351387
84.86	15.7796
85.08	29.4224
85.3	26.4596
85.52	20.1073
85.75	10.6712
85.97	20.2241
86.19	13.1161
86.41	3.22773
86.63	19.4116
86.85	15.9489
87.07	23.645
87.29	21.3319
87.51	4.97469
87.73	14.3444
87.95	30.1477
88.17	41.3454
88.39	12.2966
88.61	9.51224
88.83	28.5749
89.05	0.654289
89.27	21.8559
89.49	14.915
89.71	15.7659
89.93	11.6262
