Measurement: Powder, Xray Data XY Processed
Mineral: Olmiite
Rruff sample: R050177
Ideal chemistry: CaMn^2+^SiO_3_(OH)_2_
Locality: N'Chwaning II mine, Kuruman, South Africa
Source: Marcus Origlieri
Description: Gray etched crystals
Diffraction sample description: Powder
Measured chemistry: Ca_1.00_(Mn_0.98_Ca_0.02_)(Si_1.00_O_3_OH)(OH)
Cell parameters: a: 9.2395(4) b: 9.0525(5) c: 10.3605(6) alpha: 90. beta: 90. gamma: 90. volume: 866.57(6) crystal system: orthorhombic
x	intensity
5	0
5.22	19.394
5.44	4.473
5.66	17.679
5.88	20.993
6.1	9.815
6.32	28.33
6.54	6.355
6.76	7.272
6.98	5.49
7.2	9.359
7.42	23.63
7.64	12.656
7.86	16.062
8.08	15.513
8.3	23.059
8.52	7.271
8.74	2.64
8.96	19.845
9.18	3.649
9.4	11.367
9.62	8.873
9.84	1.095
10.06	17.093
10.28	20.042
10.5	9.996
10.72	9.881
10.94	7.785
11.16	10.983
11.38	9.694
11.6	9.09
11.82	5.856
12.04	3.086
12.26	7.995
12.48	7.298
12.7	16.827
12.92	14.799
13.14	11.978
13.36	4.083
13.58	7.938
13.8	13.738
14.02	20.193
14.24	10.93
14.46	25.847
14.68	12.998
14.9	23.73
15.12	5.967
15.34	10.959
15.56	20.747
15.78	0.224
16	9.349
16.22	28.388
16.44	9.654
16.66	13.519
16.88	2.675
17.1	51.445
17.32	5.436
17.54	8.512
17.76	10.516
17.98	1.581
18.2	25.727
18.42	13.921
18.64	1.873
18.86	4.827
19.08	10.93
19.3	9.978
19.52	18.312
19.74	13.437
19.96	3.775
20.18	10.1
20.4	8.486
20.62	14.418
20.84	8.175
21.06	10.148
21.28	13.996
21.5	48.959
21.72	16.45
21.94	21.234
22.16	15.101
22.38	3.221
22.6	0.008
22.82	12.691
23.04	8.296
23.26	95.799
23.48	9.973
23.7	1.212
23.92	3.367
24.14	20.387
24.36	0.44
24.58	7.438
24.8	10.376
25.02	19.375
25.24	22.796
25.46	17.172
25.68	9.794
25.9	59.438
26.12	31.203
26.34	9.378
26.56	21.606
26.78	11.143
27	1.031
27.22	11.984
27.44	1.271
27.66	52.961
27.88	389.962
28.1	2.905
28.32	1.064
28.54	5.748
28.76	11.736
28.98	11.143
29.2	15.846
29.42	3.048
29.64	11.911
29.86	15.937
30.08	2.068
30.3	0.666
30.52	16.546
30.74	6.396
30.96	6.571
31.18	0.914
31.4	6.547
31.62	11.185
31.84	69.241
32.06	14.318
32.28	25.367
32.5	57.918
32.72	33.546
32.94	1.111
33.16	10.254
33.38	6.027
33.6	6.721
33.82	42.89
34.04	40.369
34.26	8.937
34.48	3.692
34.7	36.733
34.92	16.877
35.14	9.86
35.36	45.892
35.58	43.65
35.8	12.658
36.02	2.992
36.24	28.827
36.46	2.314
36.68	25.703
36.9	8.926
37.12	8.229
37.34	17.458
37.56	6.53
37.78	12.846
38	31.427
38.22	51.458
38.44	18.525
38.66	8.57
38.88	3.681
39.1	17.773
39.32	13.788
39.54	8.832
39.76	18.861
39.98	16.055
40.2	20.844
40.42	0.477
40.64	1.154
40.86	5.028
41.08	7.245
41.3	24.556
41.52	11.045
41.74	2.12
41.96	9.241
42.18	4.221
42.4	2.786
42.62	5.437
42.84	34.163
43.06	16.55
43.28	8.042
43.5	4.111
43.72	12.657
43.94	23.655
44.16	20.565
44.38	42.087
44.6	19.041
44.82	30.389
45.04	0.489
45.26	3.258
45.48	19.684
45.7	11.832
45.92	7.514
46.14	6.805
46.36	8.752
46.58	0.819
46.8	3.72
47.02	15.398
47.24	15.969
47.46	22.08
47.68	13.345
47.9	9.795
48.12	15.623
48.34	7.596
48.56	20.323
48.78	4.486
49	23.37
49.22	10.928
49.44	4.339
49.66	18.962
49.88	12.931
50.1	15.595
50.32	9.543
50.54	12.969
50.76	9.742
50.98	4.951
51.2	20.016
51.42	2.195
51.64	5.735
51.86	12.021
52.08	17.71
52.3	12.483
52.52	27.964
52.74	2.644
52.96	15.424
53.18	15.681
53.4	12.324
53.62	22.221
53.84	9.208
54.06	19.239
54.28	27.94
54.5	22.785
54.72	27.886
54.94	2.222
55.16	26.375
55.38	12.663
55.6	15.743
55.82	4.82
56.04	7.784
56.26	2.336
56.48	12.095
56.7	21.636
56.92	40.445
57.14	13.804
57.36	12.315
57.58	8.207
57.8	16.436
58.02	11.887
58.24	10.018
58.46	4.276
58.68	7.57
58.9	5.708
59.12	1.832
59.34	21.499
59.56	2.517
59.78	11.522
60	23.383
60.22	0.689
60.44	8.976
60.66	1.876
60.88	14.976
61.1	13.555
61.32	23.46
61.54	14.321
61.76	13.952
61.98	9.281
62.2	12.313
62.42	24.257
62.64	13.365
62.86	4.613
63.08	1.566
63.3	12.401
63.52	22.883
63.74	8.058
63.96	4.112
64.18	15.675
64.4	15.331
64.62	7.201
64.84	2.881
65.06	10.723
65.28	12.025
65.5	13.362
65.72	25.711
65.94	1.992
66.16	5.507
66.38	9.22
66.6	7.796
66.82	16.839
67.04	6.949
67.26	19.45
67.48	13.095
67.7	0.748
67.92	11.696
68.14	10.81
68.36	19.105
68.58	18.857
68.8	15.336
69.02	10.358
69.24	10.407
69.46	6.393
69.68	17.306
69.9	10.986
70.12	13.452
70.34	18.522
70.56	7.48
70.78	11.031
71	9.02
71.22	20.259
71.44	21.5
71.66	18.654
71.88	9.935
72.1	0.856
72.32	25.793
72.54	5.773
72.76	0.013
72.98	2.069
73.2	11.089
73.42	8.076
73.64	4.792
73.86	15.427
74.08	3.151
74.3	0.403
74.52	0.656
74.74	16.653
74.96	11.937
75.18	9.798
75.4	2.745
75.62	11.378
75.84	12.668
76.06	14.879
76.28	20.144
76.5	14.202
76.72	2.841
76.94	1.35
77.16	3.847
77.38	15.075
77.6	11.479
77.82	13.463
78.04	10.992
78.26	13.982
78.48	13.387
78.7	10.708
78.92	6.224
79.14	13.18
79.36	0.816
79.58	17.564
79.8	7.71
80.02	9.481
80.24	23.019
80.46	14.36
80.68	9.413
80.9	5.185
81.12	11.953
81.34	9.731
81.56	4.025
81.78	6.133
82	10.333
82.22	16.551
82.44	10.317
82.66	12.138
82.88	21.995
83.1	15.811
83.32	18.605
83.54	1.577
83.76	1.554
83.98	16.572
84.2	15.424
84.42	4.076
84.64	9.804
84.86	6.874
85.08	1.627
85.3	26.509
85.52	8.383
85.74	11.204
85.96	5.459
86.18	11.163
86.4	13.847
86.62	9.273
86.84	4.381
87.06	3.88
87.28	3.97
87.5	2.035
87.72	8.875
87.94	7.198
88.16	11.453
88.38	12.132
88.6	4.562
88.82	11.686
89.04	8.096
89.26	19.726
89.48	7.528
89.7	11.98
89.92	7.204
