Measurement: Powder, Xray Data XY Processed
Mineral: Orpiment
Rruff sample: R060105
Ideal chemistry: As^3+^_2_S^2-^_3_
Locality: Mercur, Utah, USA
Source: University of Arizona Mineral Museum
Description: Yellowish-orange crystals
Diffraction sample description: Powder
Measured chemistry: As_2.00_S_3.00_
Cell parameters: a: 11.394(1) b: 9.591(1) c: 4.2626(5) alpha: 90. beta: 90.151(6) gamma: 90. volume: 465.83(6) crystal system: monoclinic
x	intensity
5	0
5.22	2.601
5.44	9.965
5.66	10.614
5.88	4.97
6.1	12.089
6.32	13.31
6.54	6.545
6.76	9.112
6.98	13.18
7.2	0.34
7.42	18.512
7.64	7.468
7.86	0.519
8.08	1.737
8.3	1.13
8.52	8.208
8.74	10.188
8.96	2.12
9.18	1.086
9.4	0.86
9.62	5.131
9.84	1.285
10.06	11.368
10.28	7.253
10.5	6.114
10.72	4.65
10.94	6.429
11.16	3.242
11.38	7.161
11.6	2.756
11.82	3.707
12.04	9.632
12.26	3.693
12.48	4.28
12.7	4.195
12.92	3.241
13.14	2.232
13.36	5.539
13.58	5.683
13.8	2.69
14.02	5.744
14.24	12.647
14.46	11.817
14.68	4.732
14.9	0.661
15.12	8.806
15.34	3.976
15.56	3.723
15.78	12.159
16	1.165
16.22	4.479
16.44	3.075
16.66	2.214
16.88	13.258
17.1	8.415
17.32	12.509
17.54	12.748
17.76	7.884
17.98	26.539
18.2	39.691
18.42	69.914
18.64	79.936
18.86	14.365
19.08	8.801
19.3	3.651
19.52	13.243
19.74	8.748
19.96	8.547
20.18	15.354
20.4	10.746
20.62	11.958
20.84	0.716
21.06	11.538
21.28	2.286
21.5	10.79
21.72	3.722
21.94	2.451
22.16	14.699
22.38	12.357
22.6	16.619
22.82	7.43
23.04	9.733
23.26	16.546
23.48	3.61
23.7	2.575
23.92	12.777
24.14	32.663
24.36	22.946
24.58	13.77
24.8	5.112
25.02	3.801
25.24	17.451
25.46	9.058
25.68	7.163
25.9	0.356
26.12	0.632
26.34	3.544
26.56	5.428
26.78	5.888
27	2.292
27.22	9.605
27.44	7.298
27.66	4.745
27.88	13.78
28.1	25.333
28.32	9.627
28.54	3.162
28.76	5.039
28.98	13.912
29.2	8.339
29.42	10.634
29.64	7.719
29.86	10.136
30.08	6.877
30.3	1.453
30.52	7.045
30.74	10.279
30.96	0.065
31.18	17.982
31.4	36.891
31.62	11.493
31.84	16.333
32.06	27.459
32.28	26.275
32.5	6.51
32.72	13.789
32.94	27.432
33.16	11.529
33.38	20.29
33.6	4.705
33.82	0.69
34.04	1.628
34.26	8.486
34.48	2.654
34.7	8.976
34.92	19.095
35.14	22.145
35.36	11.574
35.58	19.536
35.8	7.495
36.02	2.185
36.24	10.611
36.46	11.834
36.68	25.485
36.9	19.754
37.12	12.989
37.34	7.199
37.56	10.675
37.78	0.297
38	2.623
38.22	1.034
38.44	17.676
38.66	22.503
38.88	14.851
39.1	9.818
39.32	20.338
39.54	4.728
39.76	9.987
39.98	10.164
40.2	4.117
40.42	11.882
40.64	7.316
40.86	10.34
41.08	1.059
41.3	1.698
41.52	9.642
41.74	12.059
41.96	9.28
42.18	11.517
42.4	8.74
42.62	9.812
42.84	15.828
43.06	14.605
43.28	12.471
43.5	14.581
43.72	12.693
43.94	15.01
44.16	10.939
44.38	6.582
44.6	7.941
44.82	12.946
45.04	9.998
45.26	9.93
45.48	7.946
45.7	13.258
45.92	2.773
46.14	4.018
46.36	13.918
46.58	2.708
46.8	4.479
47.02	6.975
47.24	15.43
47.46	7.801
47.68	12.097
47.9	22.617
48.12	3.83
48.34	4.204
48.56	21.201
48.78	12.953
49	15.008
49.22	7.541
49.44	1.723
49.66	5.168
49.88	0.349
50.1	3.731
50.32	1.182
50.54	13.188
50.76	2.488
50.98	8.237
51.2	7.811
51.42	6.37
51.64	6.581
51.86	5.679
52.08	3.222
52.3	18.656
52.52	6.122
52.74	14.766
52.96	9.265
53.18	8.018
53.4	21.683
53.62	14.591
53.84	10.581
54.06	14.547
54.28	22.358
54.5	27.523
54.72	14.974
54.94	19.236
55.16	3.853
55.38	1.573
55.6	5.214
55.82	0.617
56.04	10.837
56.26	7.411
56.48	12.649
56.7	8.969
56.92	6.209
57.14	0.407
57.36	12.144
57.58	10.207
57.8	13.144
58.02	4.576
58.24	2.872
58.46	5.355
58.68	7.669
58.9	5.972
59.12	11.153
59.34	12.228
59.56	5.443
59.78	2.797
60	3.95
60.22	10.968
60.44	17.776
60.66	12.552
60.88	1.531
61.1	7.176
61.32	6.108
61.54	2.12
61.76	8.318
61.98	5.146
62.2	14.007
62.42	5.194
62.64	12.498
62.86	4.505
63.08	0.072
63.3	4.054
63.52	6.238
63.74	9.487
63.96	5.473
64.18	3.359
64.4	7.501
64.62	8.824
64.84	2.579
65.06	1.685
65.28	12.219
65.5	3.78
65.72	6.669
65.94	14.906
66.16	7.701
66.38	8.665
66.6	8.787
66.82	1.521
67.04	4.619
67.26	6.978
67.48	6.255
67.7	7.742
67.92	14.156
68.14	10.324
68.36	14.16
68.58	2.504
68.8	1.904
69.02	4.973
69.24	11.245
69.46	2.313
69.68	11.415
69.9	0.749
70.12	14.065
70.34	5.916
70.56	4.03
70.78	0.923
71	4.89
71.22	0.572
71.44	2.502
71.66	1.563
71.88	6.282
72.1	4.865
72.32	1.813
72.54	2.851
72.76	14.926
72.98	9.858
73.2	2.224
73.42	15.408
73.64	8.085
73.86	2.418
74.08	15.749
74.3	15.495
74.52	4.051
74.74	2.458
74.96	0.76
75.18	4.059
75.4	8.18
75.62	1.03
75.84	13.641
76.06	5.148
76.28	3.25
76.5	15.983
76.72	8.396
76.94	4.742
77.16	9.516
77.38	8.281
77.6	0.962
77.82	6.942
78.04	7.221
78.26	1.234
78.48	3.488
78.7	0.818
78.92	7.991
79.14	3.141
79.36	9.308
79.58	10.708
79.8	0.938
80.02	1.36
80.24	16.385
80.46	7.409
80.68	6.324
80.9	5.074
81.12	10.738
81.34	4.667
81.56	5.586
81.78	7.649
82	0.301
82.22	3.772
82.44	10.099
82.66	5.908
82.88	10.773
83.1	5.842
83.32	3.825
83.54	3.934
83.76	7.78
83.98	9.752
84.2	8.483
84.42	2.712
84.64	7.689
84.86	8.095
85.08	5.189
85.3	7.197
85.52	8.197
85.74	2.933
85.96	6.203
86.18	7.301
86.4	7.606
86.62	5.672
86.84	1.426
87.06	10.429
87.28	9.982
87.5	5.081
87.72	5.67
87.94	8.693
88.16	9.73
88.38	3.483
88.6	4.766
88.82	3.623
89.04	9.908
89.26	5.476
89.48	7.894
89.7	3.56
89.92	8.269
