Measurement: Powder, Xray Data XY Processed
Mineral: Orpiment
Rruff sample: R060116
Ideal chemistry: As^3+^_2_S^2-^_3_
Locality: Quiruvilca, Peru
Source: University of Arizona Mineral Museum
Description: Brownish-yellow prismatic crystals
Diffraction sample description: Powder
Measured chemistry: As_1.83_S_3.00_
Cell parameters: a: 12.5640(65) b: 9.10554(74) c: 4.23416(73) alpha: 90. beta: 98.236(33) gamma: 90. volume: 479.40(26) crystal system: monoclinic
x	intensity
5	0
5.22	0.302
5.44	1.083
5.66	6.445
5.88	2.414
6.1	10.14
6.32	1.194
6.54	2.356
6.76	3.089
6.98	11.522
7.2	10.793
7.42	4.956
7.64	8.322
7.86	16.51
8.08	1.746
8.3	2.954
8.52	16.513
8.74	0.268
8.96	15.596
9.18	10.746
9.4	5.977
9.62	5.993
9.84	14.166
10.06	1.484
10.28	0.039
10.5	15.894
10.72	11.006
10.94	12.949
11.16	3.604
11.38	24.182
11.6	5.446
11.82	9.26
12.04	15.267
12.26	2.323
12.48	0.095
12.7	11.877
12.92	8.877
13.14	5.791
13.36	15.056
13.58	0.658
13.8	3.521
14.02	18.022
14.24	7.959
14.46	3.035
14.68	5.791
14.9	7.413
15.12	7.501
15.34	12.909
15.56	4.585
15.78	12.427
16	8.587
16.22	2.185
16.44	12.431
16.66	2.366
16.88	0.174
17.1	11.889
17.32	0.077
17.54	13.175
17.76	3.58
17.98	28.697
18.2	42.474
18.42	63.776
18.64	26.198
18.86	18.883
19.08	10.9
19.3	3.653
19.52	14.791
19.74	3.279
19.96	9.312
20.18	6.232
20.4	5.481
20.62	7.036
20.84	5.186
21.06	3.467
21.28	9.978
21.5	6.811
21.72	8.75
21.94	3.857
22.16	4.887
22.38	22.561
22.6	9.145
22.82	9.76
23.04	10.274
23.26	1.732
23.48	9.241
23.7	12.273
23.92	9.176
24.14	8.419
24.36	17.529
24.58	1.714
24.8	9.889
25.02	3.881
25.24	5.175
25.46	1.452
25.68	5.79
25.9	8.766
26.12	1.555
26.34	5.658
26.56	2.798
26.78	4.827
27	13.335
27.22	0.32
27.44	0.884
27.66	9.852
27.88	8.519
28.1	17.458
28.32	14.162
28.54	16.497
28.76	0.508
28.98	17.519
29.2	8.743
29.42	4.381
29.64	5.861
29.86	0.331
30.08	5.986
30.3	0.201
30.52	0.761
30.74	1.204
30.96	1.651
31.18	13.037
31.4	26.863
31.62	20.347
31.84	1.009
32.06	8.251
32.28	16.968
32.5	0.956
32.72	5.794
32.94	34.33
33.16	24.696
33.38	0.786
33.6	9.642
33.82	5.154
34.04	1.977
34.26	7.112
34.48	10.394
34.7	13.945
34.92	7.544
35.14	3.994
35.36	8.485
35.58	6.882
35.8	5.718
36.02	21.187
36.24	17.001
36.46	2.671
36.68	9.087
36.9	25.721
37.12	6.29
37.34	4.761
37.56	4.796
37.78	9.319
38	0.789
38.22	0.088
38.44	11.296
38.66	18.397
38.88	8.845
39.1	11.162
39.32	10.135
39.54	4.219
39.76	11.57
39.98	8.616
40.2	8.398
40.42	14.943
40.64	7.249
40.86	12.739
41.08	7.983
41.3	19.492
41.52	5.131
41.74	11.778
41.96	5.832
42.18	11.251
42.4	12.185
42.62	15.361
42.84	9.907
43.06	9.96
43.28	15.647
43.5	3.629
43.72	3.922
43.94	5.427
44.16	1.733
44.38	6.984
44.6	10.619
44.82	3.314
45.04	3.766
45.26	8.61
45.48	5.925
45.7	6.287
45.92	5.611
46.14	7.518
46.36	11.344
46.58	8.136
46.8	1.513
47.02	16.27
47.24	2.337
47.46	11.175
47.68	15.301
47.9	9.795
48.12	10.34
48.34	6.296
48.56	15.257
48.78	8.928
49	6.808
49.22	4.927
49.44	8.551
49.66	8.932
49.88	8.419
50.1	10.725
50.32	12.586
50.54	1.579
50.76	4.324
50.98	3.064
51.2	9.217
51.42	2.596
51.64	0.021
51.86	19.365
52.08	10.986
52.3	8.309
52.52	0.36
52.74	8.99
52.96	9.932
53.18	5.73
53.4	12.34
53.62	5.383
53.84	0.575
54.06	4.438
54.28	12.191
54.5	14.476
54.72	18.26
54.94	7.685
55.16	10.208
55.38	13.695
55.6	1.322
55.82	9.265
56.04	5.944
56.26	0.279
56.48	6.085
56.7	14.79
56.92	4.735
57.14	23.682
57.36	2.993
57.58	1.497
57.8	3.202
58.02	10.381
58.24	4.5
58.46	10.725
58.68	7.72
58.9	4.736
59.12	2.066
59.34	3.224
59.56	7.407
59.78	11.463
60	6.814
60.22	4.21
60.44	4.889
60.66	7.254
60.88	3.313
61.1	4.29
61.32	6.369
61.54	6.668
61.76	5.846
61.98	10.126
62.2	9.366
62.42	7.566
62.64	5.265
62.86	14.471
63.08	15.56
63.3	13.65
63.52	1.472
63.74	10.377
63.96	4.421
64.18	10.658
64.4	0.562
64.62	5.494
64.84	7.648
65.06	7.674
65.28	7.244
65.5	2.529
65.72	5.261
65.94	8.786
66.16	4.729
66.38	6.547
66.6	4.516
66.82	3.797
67.04	10.919
67.26	11.085
67.48	6.399
67.7	11.952
67.92	1.183
68.14	1.937
68.36	7.236
68.58	11.437
68.8	7.676
69.02	2.735
69.24	3.845
69.46	15.014
69.68	12.612
69.9	0.903
70.12	7.854
70.34	4.519
70.56	1.952
70.78	3.032
71	7.371
71.22	10.628
71.44	6.782
71.66	0.428
71.88	16.569
72.1	4.913
72.32	11.958
72.54	6.971
72.76	8.206
72.98	5.317
73.2	13.382
73.42	2.4
73.64	6.245
73.86	4.333
74.08	7.53
74.3	2.488
74.52	7.185
74.74	25.05
74.96	6.539
75.18	6.301
75.4	3.288
75.62	2.986
75.84	5.874
76.06	0.538
76.28	1.926
76.5	9.952
76.72	3.097
76.94	2.217
77.16	3.389
77.38	2.281
77.6	0.211
77.82	5.994
78.04	2.219
78.26	6.034
78.48	7.213
78.7	3.99
78.92	0.582
79.14	3.229
79.36	4.127
79.58	2.937
79.8	5.12
80.02	9.139
80.24	1.79
80.46	7.902
80.68	9.168
80.9	5.763
81.12	0.067
81.34	1.992
81.56	12.85
81.78	6.736
82	0.317
82.22	10.801
82.44	2.224
82.66	11.175
82.88	1.166
83.1	15.385
83.32	6.665
83.54	0.518
83.76	6.243
83.98	0.432
84.2	0.008
84.42	8.422
84.64	12.247
84.86	11.154
85.08	1.2
85.3	7.485
85.52	7.103
85.74	6.165
85.96	14.01
86.18	3.023
86.4	9.473
86.62	12.953
86.84	5.089
87.06	5.383
87.28	0.263
87.5	0.764
87.72	1.879
87.94	12.912
88.16	2.901
88.38	1.176
88.6	3.176
88.82	5.19
89.04	1.327
89.26	16.039
89.48	2.445
89.7	5.476
89.92	4.889
