Measurement: Powder, Xray Data XY Processed
Mineral: Orthoclase
Rruff sample: R050185
Ideal chemistry: KAlSi_3_O_8_
Locality: Silica Bell Property, west of Hope, British Columbia, Canada
Source: Bob Downs
Description: Cluster of white wedge-shaped crystals, variety adularia
Diffraction sample description: Powder
Measured chemistry: (K_0.96_Na_0.04_)Al_1.00_Si_3.00_O_8_
Cell parameters: a: 8.585(1) b: 12.991(1) c: 7.2006(5) alpha: 90 beta: 116.035(8) gamma: 90 volume: 721.5(1) crystal system: monoclinic
x	intensity
5	0
5.22	11.852
5.44	5.058
5.66	3.315
5.88	22.236
6.1	4.071
6.32	21.461
6.54	7.409
6.76	5.335
6.98	7.354
7.2	5.37
7.42	4.615
7.64	8.476
7.86	6.278
8.08	3.989
8.3	3.652
8.52	7.101
8.74	13.413
8.96	4.553
9.18	4.963
9.4	8.26
9.62	6.469
9.84	6.855
10.06	6.752
10.28	0.758
10.5	8.823
10.72	6.751
10.94	1.578
11.16	8.172
11.38	4.962
11.6	12.045
11.82	5.254
12.04	3.01
12.26	6.343
12.48	5.265
12.7	2.318
12.92	0.172
13.14	2.225
13.36	35.191
13.58	27.575
13.8	9.595
14.02	0.343
14.24	1.116
14.46	9.281
14.68	13.438
14.9	8.747
15.12	37.964
15.34	1.237
15.56	5.194
15.78	3.348
16	9.423
16.22	4.648
16.44	13.752
16.66	6.766
16.88	0.863
17.1	5.855
17.32	5.632
17.54	8.839
17.76	6.859
17.98	4.127
18.2	4.193
18.42	6.828
18.64	4.62
18.86	7.514
19.08	8.682
19.3	7.512
19.52	5.418
19.74	8.3
19.96	9.785
20.18	4.6
20.4	4.219
20.62	2.997
20.84	11.171
21.06	89.981
21.28	4.691
21.5	1.072
21.72	8.179
21.94	0.284
22.16	1.477
22.38	10.135
22.6	52.476
22.82	11.173
23.04	22.57
23.26	0.739
23.48	53.755
23.7	33.344
23.92	6.197
24.14	9.592
24.36	6.162
24.58	31.598
24.8	5.122
25.02	2.78
25.24	16.259
25.46	5.157
25.68	923.229
25.9	2.913
26.12	4.701
26.34	0.32
26.56	11.935
26.78	60.95
27	107.569
27.22	61.037
27.44	387.433
27.66	249.708
27.88	17.395
28.1	4.85
28.32	1.525
28.54	1.802
28.76	4.988
28.98	3.143
29.2	12.577
29.42	9.163
29.64	15.932
29.86	339.989
30.08	24.205
30.3	8.016
30.52	21.306
30.74	21.746
30.96	39.082
31.18	4.608
31.4	0.08
31.62	2.893
31.84	10.439
32.06	11.936
32.28	8.704
32.5	8.668
32.72	3.497
32.94	6.633
33.16	4.368
33.38	0.614
33.6	2.25
33.82	0.157
34.04	2.349
34.26	10.257
34.48	29.053
34.7	12.847
34.92	34.879
35.14	32.42
35.36	4.715
35.58	10.08
35.8	11.12
36.02	0.498
36.24	5.927
36.46	0.393
36.68	4.806
36.9	2.275
37.12	10.789
37.34	10.197
37.56	22.386
37.78	37.227
38	5.219
38.22	1.605
38.44	9.797
38.66	19.787
38.88	11.061
39.1	3.132
39.32	4.789
39.54	3.941
39.76	13.604
39.98	4.419
40.2	7.324
40.42	9.97
40.64	4.596
40.86	9.106
41.08	9.941
41.3	8.341
41.52	9.877
41.74	384.683
41.96	19.621
42.18	2.6
42.4	15.069
42.62	49.044
42.84	7.294
43.06	2.429
43.28	8.061
43.5	0.622
43.72	18.077
43.94	0.328
44.16	20.669
44.38	0.748
44.6	5.272
44.82	11.767
45.04	18.61
45.26	8.411
45.48	13.725
45.7	7.279
45.92	26.869
46.14	19.203
46.36	9.008
46.58	2.762
46.8	8.158
47.02	17.295
47.24	18.273
47.46	7.547
47.68	6.996
47.9	5.485
48.12	3.491
48.34	7.453
48.56	9.486
48.78	4.37
49	18.603
49.22	28.118
49.44	2.795
49.66	7.68
49.88	4.213
50.1	0.879
50.32	12.131
50.54	18.161
50.76	88.278
50.98	14.918
51.2	4.188
51.42	3.913
51.64	14.377
51.86	10.05
52.08	2.551
52.3	3.806
52.52	10.972
52.74	3.592
52.96	9.008
53.18	14.401
53.4	6.222
53.62	1.523
53.84	1.296
54.06	4.669
54.28	2.981
54.5	2.09
54.72	9.061
54.94	13.107
55.16	4.875
55.38	7.689
55.6	3.403
55.82	9.003
56.04	1.884
56.26	5.003
56.48	15.701
56.7	13.218
56.92	2.007
57.14	9.229
57.36	5.294
57.58	5.153
57.8	5.209
58.02	5.459
58.24	4.418
58.46	2.738
58.68	7.002
58.9	13.195
59.12	5.421
59.34	12.268
59.56	4.95
59.78	7.754
60	1.654
60.22	0.425
60.44	5.272
60.66	8.109
60.88	4.652
61.1	11.332
61.32	3.242
61.54	4.287
61.76	7.351
61.98	36.983
62.2	9.385
62.42	6.548
62.64	0.521
62.86	4.388
63.08	3.32
63.3	1.165
63.52	1.928
63.74	12.498
63.96	15.132
64.18	12.857
64.4	10.467
64.62	5.945
64.84	16.755
65.06	18.018
65.28	11.109
65.5	10.258
65.72	6.512
65.94	1.177
66.16	0.398
66.38	5.894
66.6	7.034
66.82	1.058
67.04	8.157
67.26	4.243
67.48	3.182
67.7	31.309
67.92	17.582
68.14	8.802
68.36	8.979
68.58	7.704
68.8	5.082
69.02	9.271
69.24	2.41
69.46	2.413
69.68	5.603
69.9	3.867
70.12	14.532
70.34	6.24
70.56	3.969
70.78	4.449
71	3.017
71.22	5.447
71.44	6.086
71.66	11.532
71.88	10.908
72.1	8.409
72.32	2.89
72.54	8.761
72.76	10.571
72.98	31.409
73.2	6.309
73.42	10.312
73.64	6.304
73.86	0.444
74.08	15.254
74.3	2.754
74.52	5.246
74.74	1.538
74.96	10.111
75.18	6.718
75.4	5.316
75.62	0.187
75.84	2.364
76.06	6.941
76.28	2.374
76.5	1.449
76.72	3.708
76.94	5.964
77.16	0.871
77.38	5.19
77.6	3.017
77.82	1.869
78.04	7.856
78.26	2.86
78.48	3.838
78.7	3.782
78.92	11.676
79.14	5.645
79.36	8.531
79.58	2.51
79.8	3.561
80.02	2.923
80.24	16.9
80.46	4.861
80.68	3.062
80.9	1.965
81.12	0.165
81.34	5.748
81.56	2.774
81.78	10.071
82	5.077
82.22	4.875
82.44	1.718
82.66	3.752
82.88	2.835
83.1	2.745
83.32	2.672
83.54	2.752
83.76	6.775
83.98	1.212
84.2	0.843
84.42	7.943
84.64	7.093
84.86	5.307
85.08	4.426
85.3	6.494
85.52	8.491
85.74	11.922
85.96	4.096
86.18	2.197
86.4	4.24
86.62	4.129
86.84	2.917
87.06	2.958
87.28	3.213
87.5	3.215
87.72	7.289
87.94	2.232
88.16	11.888
88.38	3.174
88.6	1.781
88.82	3.708
89.04	8.768
89.26	4.532
89.48	3.418
89.7	2.619
89.92	5.294
