Measurement: Powder, Xray Data XY Processed
Mineral: Orthoclase
Rruff sample: R040055
Ideal chemistry: KAlSi_3_O_8_
Locality: Madagascar
Source: Bob Downs
Description: Pale yellow fragments
Diffraction sample description: Powder
Measured chemistry: K_0.96_(Al_0.96_Si_0.03_Fe_0.02_)Si_3.00_O_8_; = light material. (K_0.90_Na_0.02_)(Al_0.91_Si_0.08_Fe_0.02_)Si_3.00_O_8_ = dark
Cell parameters: a: 8.6000(3) b: 12.9978(3) c: 7.2004(2) alpha: 90. beta: 116.049(2) gamma: 90. volume: 723.11(2) crystal system: monoclinic
x	intensity
5	0
5.22	20.136
5.44	14.665
5.66	28.447
5.88	16.477
6.1	13.294
6.32	21.98
6.54	8.436
6.76	8.918
6.98	10.976
7.2	8.163
7.42	5.457
7.64	4.285
7.86	7.393
8.08	6.304
8.3	10.219
8.52	3.971
8.74	8.579
8.96	5.211
9.18	6.19
9.4	10.78
9.62	16.937
9.84	7.879
10.06	2.867
10.28	4.417
10.5	6.659
10.72	1.677
10.94	2.31
11.16	6.499
11.38	5.685
11.6	2.34
11.82	5.307
12.04	4.445
12.26	5.351
12.48	5.331
12.7	5.139
12.92	9.907
13.14	5.356
13.36	58.598
13.58	15.309
13.8	9.055
14.02	0.83
14.24	5.319
14.46	4.231
14.68	6.607
14.9	4.065
15.12	101.278
15.34	16.623
15.56	8.302
15.78	7.622
16	0.967
16.22	7.225
16.44	10.393
16.66	0.877
16.88	0.859
17.1	8.78
17.32	4.055
17.54	8.042
17.76	1.782
17.98	7.437
18.2	1.703
18.42	0.089
18.64	11.924
18.86	3.778
19.08	0.471
19.3	9.39
19.52	6.051
19.74	2.535
19.96	6.467
20.18	4.394
20.4	0.737
20.62	0.873
20.84	4.914
21.06	143.143
21.28	15.002
21.5	6.826
21.72	1.243
21.94	0.032
22.16	3.193
22.38	10.502
22.6	131.173
22.82	2.338
23.04	34.461
23.26	9.321
23.48	59.609
23.7	23.204
23.92	4.107
24.14	1.659
24.36	14.74
24.58	32.402
24.8	0.824
25.02	4.612
25.24	18.441
25.46	4.874
25.68	356.939
25.9	8.477
26.12	7.017
26.34	8.335
26.56	3.219
26.78	53.736
27	46.584
27.22	64.311
27.44	252.756
27.66	1321.95
27.88	25.368
28.1	10.468
28.32	5.355
28.54	10.707
28.76	7.036
28.98	8.368
29.2	3.761
29.42	9.391
29.64	15.231
29.86	1328.95
30.08	14.494
30.3	3.302
30.52	23.21
30.74	35.476
30.96	96.898
31.18	1.594
31.4	1.877
31.62	8.534
31.84	9.215
32.06	5.118
32.28	24.696
32.5	21.836
32.72	6.318
32.94	4.977
33.16	4.763
33.38	0.429
33.6	1.679
33.82	3.1
34.04	6.426
34.26	6.178
34.48	29.52
34.7	25.118
34.92	89.714
35.14	60.412
35.36	0.919
35.58	218.205
35.8	1.927
36.02	4.582
36.24	19.838
36.46	1.296
36.68	11.682
36.9	6.055
37.12	4.983
37.34	11.628
37.56	11.901
37.78	41.747
38	14.925
38.22	1.884
38.44	8.292
38.66	4.543
38.88	27.095
39.1	1.556
39.32	11.422
39.54	6.863
39.76	17.49
39.98	12.297
40.2	1.099
40.42	12.76
40.64	2.107
40.86	15.498
41.08	17.451
41.3	5.861
41.52	9.221
41.74	38.012
41.96	12.151
42.18	10.615
42.4	4.646
42.62	20.561
42.84	4.817
43.06	3.957
43.28	0.295
43.5	4.618
43.72	24.441
43.94	6.403
44.16	12.332
44.38	8.906
44.6	10.456
44.82	6.248
45.04	54.127
45.26	6.962
45.48	7.058
45.7	1.232
45.92	26.416
46.14	19.5
46.36	7.671
46.58	12.245
46.8	8.941
47.02	48.957
47.24	26.181
47.46	14.537
47.68	5.754
47.9	6.406
48.12	8.229
48.34	7.076
48.56	7.869
48.78	2.539
49	8.367
49.22	119.839
49.44	21.571
49.66	12.288
49.88	6.68
50.1	2.695
50.32	6.654
50.54	14.85
50.76	260.054
50.98	34.569
51.2	1.983
51.42	24.85
51.64	4.122
51.86	2.532
52.08	0.944
52.3	6.335
52.52	15.316
52.74	2.693
52.96	12.909
53.18	1.395
53.4	11.611
53.62	4.718
53.84	5.938
54.06	10.099
54.28	1.619
54.5	2.413
54.72	24.267
54.94	9.52
55.16	1.328
55.38	5.036
55.6	8.521
55.82	13.079
56.04	3.82
56.26	6.734
56.48	21.286
56.7	4.934
56.92	10.733
57.14	1.103
57.36	17.373
57.58	0.472
57.8	20.65
58.02	2.714
58.24	3.973
58.46	5.719
58.68	12.907
58.9	24.227
59.12	10.482
59.34	7.731
59.56	2.486
59.78	4.112
60	7.007
60.22	25.867
60.44	6.069
60.66	14.037
60.88	3.343
61.1	34.896
61.32	7.865
61.54	5.998
61.76	9.006
61.98	72.893
62.2	7.361
62.42	3.065
62.64	8.222
62.86	5.791
63.08	3.541
63.3	0.604
63.52	4.145
63.74	14.634
63.96	15.073
64.18	43.603
64.4	5.251
64.62	34.919
64.84	16.771
65.06	19.808
65.28	5.975
65.5	4.431
65.72	10.043
65.94	13.567
66.16	1.339
66.38	40.671
66.6	15.99
66.82	3.145
67.04	1.041
67.26	4.052
67.48	6.049
67.7	17.082
67.92	16.009
68.14	1.963
68.36	5.1
68.58	6.759
68.8	12.792
69.02	8.766
69.24	0.169
69.46	10.349
69.68	14.507
69.9	2.484
70.12	10.728
70.34	15.288
70.56	9.678
70.78	5.397
71	17.115
71.22	0.164
71.44	9.953
71.66	12.541
71.88	34.65
72.1	23.268
72.32	2.823
72.54	10.173
72.76	11.951
72.98	13.215
73.2	12.008
73.42	91.19
73.64	56.053
73.86	5.07
74.08	8.258
74.3	11.551
74.52	5.724
74.74	14.279
74.96	5.542
75.18	9.67
75.4	7.364
75.62	31.174
75.84	13.622
76.06	2.824
76.28	7.454
76.5	8.891
76.72	8.311
76.94	9.834
77.16	10.879
77.38	6.209
77.6	13.226
77.82	8.149
78.04	4.111
78.26	6.003
78.48	9.818
78.7	2.701
78.92	9.41
79.14	7.397
79.36	5.958
79.58	3.972
79.8	9.025
80.02	21.147
80.24	10.221
80.46	11.994
80.68	15.798
80.9	4.89
81.12	0.169
81.34	2.469
81.56	10.499
81.78	1.885
82	0.81
82.22	4.831
82.44	4.791
82.66	9.779
82.88	10.161
83.1	12.092
83.32	8.998
83.54	9.773
83.76	5.51
83.98	0.482
84.2	9.214
84.42	4.215
84.64	10.314
84.86	7.61
85.08	13.83
85.3	4.548
85.52	3.941
85.74	0.771
85.96	0.362
86.18	5.788
86.4	28.863
86.62	23.978
86.84	10.183
87.06	5.962
87.28	3.859
87.5	3.775
87.72	6.784
87.94	7.556
88.16	4.271
88.38	14.414
88.6	2.498
88.82	3.489
89.04	10.515
89.26	14.798
89.48	8.895
89.7	10.513
89.92	1.736
