Measurement: Powder, Xray Data XY Processed
Mineral: Osumilite
Rruff sample: R060385
Ideal chemistry: KFe^2+^_2_(Al_5_Si_10_)O_30_
Locality: Funtanafigu Quarry, Monte Arci, near Oristano, Sardinia
Source: Michael Scott
Description: Black tabular distorted hexagonal crystals associated with colorless tridymite
Diffraction sample description: Single crystal, powder profile is calculated
Measured chemistry: (K_0.72_Na_0.15_Ca_0.01_)_Σ=0.88_(Fe^2+^_1.07_Mg_0.93_Mn_0.06_)_Σ=2.06_(Al_2.69_Fe^3+^_0.31_)_Σ=3_(Si_10.28_Al_1.72_)_Σ=12_O_30_
Cell parameters: a: 10.141(1) b: 10.141(1) c: 14.303(1) alpha: 90 beta: 90 gamma: 120 volume: 1273.8(3) crystal system: hexagonal
x	intensity
5	0
5.22	0
5.44	0
5.66	0
5.88	0
6.1	0
6.32	0
6.54	0
6.76	0
6.98	0
7.2	0
7.42	0
7.64	0
7.86	0
8.08	0
8.3	0
8.52	0
8.74	0
8.96	0
9.18	0
9.4	0
9.62	0
9.84	0
10.06	0.562
10.28	0
10.5	0
10.72	0
10.94	0
11.16	0
11.38	0
11.6	0
11.82	0
12.04	0
12.26	0.022
12.48	0.245
12.7	0
12.92	0
13.14	0
13.36	0
13.58	0
13.8	0
14.02	0
14.24	0
14.46	0
14.68	0
14.9	0
15.12	0
15.34	0
15.56	0
15.78	0
16	44.587
16.22	0
16.44	0
16.66	0
16.88	0
17.1	0
17.32	0
17.54	16.262
17.76	0
17.98	0
18.2	0
18.42	0
18.64	0
18.86	0
19.08	0
19.3	0
19.52	0
19.74	0
19.96	0
20.18	7.072
20.4	0
20.62	0
20.84	0
21.06	0
21.28	0
21.5	40.109
21.72	0
21.94	0
22.16	0
22.38	0
22.6	0
22.82	0
23.04	0
23.26	0
23.48	0
23.7	4.943
23.92	0.04
24.14	0
24.36	0
24.58	0
24.8	0.368
25.02	0.238
25.24	0
25.46	0
25.68	0
25.9	0
26.12	0
26.34	0
26.56	0
26.78	0.412
27	4.05
27.22	0
27.44	0.02
27.66	33.014
27.88	0
28.1	0
28.32	0
28.54	0
28.76	0
28.98	0
29.2	0
29.42	0
29.64	14.751
29.86	0
30.08	0
30.3	0
30.52	24.533
30.74	0.238
30.96	0
31.18	0
31.4	0
31.62	0
31.84	0
32.06	0
32.28	41.661
32.5	0
32.72	0.001
32.94	5.002
33.16	0.202
33.38	0
33.6	0
33.82	0
34.04	0
34.26	0
34.48	0
34.7	0
34.92	0
35.14	0
35.36	16.744
35.58	0.015
35.8	0
36.02	0
36.24	0
36.46	0
36.68	0
36.9	3.79
37.12	0.001
37.34	0.148
37.56	3.681
37.78	0.693
38	0
38.22	0
38.44	0
38.66	0
38.88	0
39.1	0.035
39.32	0
39.54	0
39.76	0.642
39.98	0.001
40.2	0
40.42	0
40.64	0
40.86	0
41.08	0.065
41.3	0
41.52	0.254
41.74	2.348
41.96	0.242
42.18	0
42.4	0
42.62	0
42.84	0
43.06	3.188
43.28	0.012
43.5	0
43.72	2.462
43.94	0.032
44.16	0
44.38	0
44.6	0
44.82	0.001
45.04	7.429
45.26	0
45.48	0.239
45.7	0
45.92	0
46.14	0
46.36	0
46.58	0
46.8	0.053
47.02	0.499
47.24	0
47.46	1.359
47.68	0
47.9	3.188
48.12	0
48.34	0
48.56	0.133
48.78	0.324
49	0.605
49.22	12.892
49.44	0.725
49.66	0
49.88	0
50.1	0
50.32	0
50.54	0
50.76	0
50.98	1.275
51.2	3.258
51.42	0.009
51.64	0
51.86	0
52.08	1.678
52.3	0.316
52.52	0.103
52.74	2.847
52.96	0
53.18	0
53.4	0
53.62	0.035
53.84	0.305
54.06	0
54.28	4.075
54.5	0.349
54.72	0
54.94	0
55.16	0
55.38	0.609
55.6	0.548
55.82	1.184
56.04	0.428
56.26	0
56.48	0
56.7	0
56.92	0.185
57.14	0.378
57.36	0
57.58	0
57.8	0.3
58.02	1.14
58.24	0
58.46	0.205
58.68	0.182
58.9	2.026
59.12	0.279
59.34	0
59.56	0
59.78	0
60	1.824
60.22	1.119
60.44	0.056
60.66	3.418
60.88	0.231
61.1	0
61.32	0
61.54	0.512
61.76	0.176
61.98	0.344
62.2	0.01
62.42	0
62.64	0
62.86	0
63.08	0
63.3	0
63.52	0.427
63.74	0.768
63.96	0.001
64.18	0
64.4	0.022
64.62	0.233
64.84	0.744
65.06	2.92
65.28	0.117
65.5	0
65.72	0
65.94	0.007
66.16	0.115
66.38	2.805
66.6	3.156
66.82	2.739
67.04	0.844
67.26	0
67.48	0.231
67.7	0.272
67.92	0.517
68.14	0.281
68.36	0.011
68.58	0
68.8	0.127
69.02	1.299
69.24	0.952
69.46	0.9
69.68	1.03
69.9	0.294
70.12	0.009
70.34	1.597
70.56	0.771
70.78	2.194
71	0.501
71.22	0
71.44	0
71.66	0.199
71.88	0.432
72.1	2.311
72.32	1.227
72.54	0
72.76	0
72.98	0
73.2	0
73.42	1.417
73.64	0.687
73.86	0.028
74.08	0
74.3	0
74.52	0
74.74	0
74.96	0
75.18	0.151
75.4	0.077
75.62	0.002
75.84	0.453
76.06	0.529
76.28	0.869
76.5	0.407
76.72	0.009
76.94	0
77.16	0.823
77.38	0.461
77.6	0.04
77.82	0.002
78.04	1.521
78.26	0.663
78.48	0.625
78.7	0.354
78.92	0.907
79.14	0.333
79.36	0.04
79.58	0
79.8	0.843
80.02	1.1
80.24	2.139
80.46	0.387
80.68	0.006
80.9	0
81.12	0.245
81.34	0.115
81.56	0.271
81.78	0.178
82	0
82.22	0
82.44	0.001
82.66	0.074
82.88	0.03
83.1	0.033
83.32	0.337
83.54	0.181
83.76	0
83.98	0.024
84.2	0.928
84.42	0.855
84.64	0.299
84.86	0
85.08	0
85.3	0
85.52	0
85.74	0.013
85.96	0.023
86.18	0.007
86.4	0.003
86.62	0.729
86.84	0.993
87.06	0.271
87.28	0.326
87.5	0
87.72	0.004
87.94	0.119
88.16	0.236
88.38	2.353
88.6	1.293
88.82	0.05
89.04	0.142
89.26	0.006
89.48	0.119
89.7	0.629
89.92	0.065
