Measurement: Powder, Xray Data XY Processed
Mineral: Otavite
Rruff sample: R050677
Ideal chemistry: Cd^2+^CO_3_
Locality: Tsumeb mine, Tsumeb, Otavi District, Oshikoto, Namibia
Source: University of Arizona Mineral Museum
Description: White rhombohedra
Diffraction sample description: Powder
Measured chemistry: (Cd_0.91_Zn_0.05_Pb_0.04_)_Σ=1_CO_3_ ; = lighter phase. The crystal is zoned. The darker phase is (Cd_0.93_Zn_0.05_Pb_0.02_)_Σ=1_CO_3_ ; the inclusion is cerussite: Pb_1.00_CO_3_
Cell parameters: a: 4.9138(2) b: 4.9138(2) c: 16.325(1) alpha: 90. beta: 90. gamma: 120. volume: 341.38(3) crystal system: hexagonal
x	intensity
5	0
5.22	3.424
5.44	2.678
5.66	11.377
5.88	7.715
6.1	4.188
6.32	1.057
6.54	3.548
6.76	5.122
6.98	10.524
7.2	1.05
7.42	4.823
7.64	3.185
7.86	2.547
8.08	7.813
8.3	5.986
8.52	2.042
8.74	8.747
8.96	5.691
9.18	4.486
9.4	0.344
9.62	4.195
9.84	4.065
10.06	8.809
10.28	5.803
10.5	4.839
10.72	6.948
10.94	3.886
11.16	5.189
11.38	5.266
11.6	5.424
11.82	1.508
12.04	5.623
12.26	8.796
12.48	4.859
12.7	3.066
12.92	9.166
13.14	7.022
13.36	1.054
13.58	1.985
13.8	3.95
14.02	1.047
14.24	1.997
14.46	2.984
14.68	2.854
14.9	7.852
15.12	2.839
15.34	1.835
15.56	1.91
15.78	0.054
16	0.91
16.22	5.133
16.44	2.017
16.66	2.047
16.88	5.079
17.1	6.342
17.32	5.125
17.54	9.07
17.76	1.078
17.98	5.951
18.2	5.791
18.42	2.597
18.64	2.704
18.86	3.622
19.08	7.448
19.3	3.349
19.52	10.028
19.74	1.791
19.96	3.641
20.18	10.448
20.4	6.37
20.62	3.49
20.84	10.331
21.06	13.587
21.28	7.816
21.5	8.869
21.72	0.436
21.94	3.205
22.16	2.934
22.38	1.582
22.6	10.242
22.82	6.78
23.04	8.319
23.26	15.836
23.48	94.495
23.7	151.357
23.92	20.319
24.14	17.554
24.36	6.845
24.58	2.982
24.8	9.134
25.02	3.425
25.24	0.739
25.46	6.952
25.68	6.963
25.9	8.106
26.12	7.868
26.34	7.043
26.56	9.113
26.78	6.225
27	5.571
27.22	9.932
27.44	0.097
27.66	4.978
27.88	0.702
28.1	1.142
28.32	3.164
28.54	0.278
28.76	3.275
28.98	2.124
29.2	25.847
29.42	11.797
29.64	17.711
29.86	17.9
30.08	30.52
30.3	357.787
30.52	129.517
30.74	9.015
30.96	5.292
31.18	1.567
31.4	0.714
31.62	4.711
31.84	0.602
32.06	8.482
32.28	6.406
32.5	4.738
32.72	6.944
32.94	25.123
33.16	7.54
33.38	10.267
33.6	7.919
33.82	7.93
34.04	4.1
34.26	5.278
34.48	5.31
34.7	6.914
34.92	5.952
35.14	9.757
35.36	7.46
35.58	4.112
35.8	6.958
36.02	11.847
36.24	10.672
36.46	57.468
36.68	90.65
36.9	22.676
37.12	6.049
37.34	0.923
37.56	0.252
37.78	7.432
38	4.586
38.22	1.849
38.44	1.922
38.66	5.168
38.88	10.388
39.1	1.094
39.32	3.881
39.54	5.738
39.76	3.929
39.98	9.952
40.2	14.181
40.42	9.278
40.64	9.311
40.86	9.71
41.08	4.423
41.3	2.621
41.52	4.517
41.74	4.313
41.96	4.026
42.18	3.49
42.4	5.036
42.62	8.341
42.84	14.749
43.06	9.243
43.28	7.492
43.5	4.945
43.72	11.61
43.94	94.822
44.16	35.021
44.38	7.085
44.6	14.175
44.82	1.618
45.04	1.009
45.26	1.215
45.48	12.588
45.7	8.794
45.92	2.973
46.14	4.095
46.36	14.141
46.58	7.669
46.8	6.339
47.02	2.08
47.24	16.351
47.46	0.472
47.68	9.145
47.9	8.32
48.12	37.743
48.34	32.945
48.56	11.026
48.78	1.179
49	3.924
49.22	11.76
49.44	47.817
49.66	63.47
49.88	61.148
50.1	98.716
50.32	32.342
50.54	1.407
50.76	5.721
50.98	0.35
51.2	6.524
51.42	3.451
51.64	2.407
51.86	12.416
52.08	6.562
52.3	3.785
52.52	3.744
52.74	4.049
52.96	3.044
53.18	5.975
53.4	8.035
53.62	12.152
53.84	8.255
54.06	0.853
54.28	4.696
54.5	11.653
54.72	2.59
54.94	5.504
55.16	5.38
55.38	7.567
55.6	1.462
55.82	3.374
56.04	6.259
56.26	7.989
56.48	8.74
56.7	10.512
56.92	3.096
57.14	2.765
57.36	1.427
57.58	12.889
57.8	0.5
58.02	4.266
58.24	10.95
58.46	37.836
58.68	29.649
58.9	11.184
59.12	2.701
59.34	6.896
59.56	0.903
59.78	2.298
60	9.616
60.22	2.77
60.44	7.25
60.66	13.213
60.88	10.09
61.1	16.991
61.32	1.568
61.54	6.942
61.76	11.7
61.98	54.512
62.2	17.373
62.42	3.051
62.64	0.213
62.86	8.967
63.08	28.323
63.3	14.706
63.52	8.264
63.74	3.136
63.96	2.371
64.18	2.693
64.4	2.97
64.62	4.145
64.84	2.719
65.06	3.334
65.28	3.25
65.5	9.124
65.72	16.94
65.94	22.104
66.16	5.69
66.38	9.784
66.6	2.973
66.82	5.279
67.04	3.707
67.26	7.769
67.48	4.867
67.7	5.922
67.92	2.984
68.14	4.991
68.36	6.593
68.58	7.742
68.8	7.976
69.02	13.713
69.24	3.609
69.46	3.247
69.68	12.37
69.9	3.402
70.12	6.406
70.34	5.586
70.56	10.618
70.78	10.081
71	3.937
71.22	4.703
71.44	4.71
71.66	3.718
71.88	0.284
72.1	0.555
72.32	7.506
72.54	4.823
72.76	9.831
72.98	9.772
73.2	6.285
73.42	7.358
73.64	11.064
73.86	5.875
74.08	2.673
74.3	4.515
74.52	4.389
74.74	12.152
74.96	5.804
75.18	16.679
75.4	15.013
75.62	10.131
75.84	14.146
76.06	1.231
76.28	0.45
76.5	1.336
76.72	1.858
76.94	4.137
77.16	0.344
77.38	3.514
77.6	7.893
77.82	13.78
78.04	5.001
78.26	0.051
78.48	8.123
78.7	2.338
78.92	2.292
79.14	0.587
79.36	3.237
79.58	5.133
79.8	4.829
80.02	4.448
80.24	8.144
80.46	2.011
80.68	4.081
80.9	8.159
81.12	3.922
81.34	12.807
81.56	2.942
81.78	1.068
82	4.321
82.22	5.677
82.44	8.214
82.66	6.548
82.88	7.203
83.1	4.187
83.32	5.9
83.54	2.654
83.76	5.293
83.98	4.033
84.2	3.649
84.42	22.936
84.64	14.375
84.86	1.529
85.08	0.134
85.3	6.185
85.52	9.994
85.74	21.925
85.96	3.978
86.18	7.142
86.4	2.447
86.62	6.941
86.84	7.263
87.06	10.828
87.28	4.281
87.5	6.511
87.72	6.64
87.94	3.165
88.16	5.809
88.38	2.228
88.6	7.592
88.82	2.689
89.04	6.971
89.26	4.172
89.48	1.659
89.7	2.126
89.92	8.056
