Measurement: Powder, Xray Data XY Processed
Mineral: Painite
Rruff sample: R060957
Ideal chemistry: CaZr^4+^Al_9_O_15_(BO_3_)
Locality: Ohngaing Village, Mogok, Burma
Source: Marcus Origlieri
Description: Single crystal, reddish-brown to orangish prism section, several prism forms, small transparent areas.
Diffraction sample description: Powder
Cell parameters: a: 8.7258(1) b: 8.7258(1) c: 8.4716(2) alpha: 90 beta: 90 gamma: 120 volume: 558.61(1) crystal system: hexagonal
x	intensity
5	0
5.22	9.69069
5.44	4.25393
5.66	5.95495
5.88	6.91823
6.1	11.7693
6.32	4.12648
6.54	5.63931
6.76	7.25538
6.98	5.10963
7.2	8.53776
7.42	2.15405
7.64	5.66109
7.86	4.21648
8.08	6.66579
8.3	6.86915
8.52	2.88868
8.74	7.6905
8.96	5.02069
9.18	0.574053
9.4	5.46692
9.62	5.74147
9.84	12.8109
10.06	5.13392
10.28	4.15959
10.5	8.96207
10.72	3.02443
10.94	0.081878
11.16	8.22665
11.38	1.43514
11.6	26.4656
11.82	28.6301
12.04	1.14182
12.26	1.00483
12.48	0.965934
12.7	1.12027
12.92	6.33428
13.14	4.40783
13.36	1.89538
13.58	9.76238
13.8	6.74261
14.02	11.612
14.24	8.42067
14.46	8.20999
14.68	2.90314
14.9	9.63765
15.12	1.51258
15.34	6.35876
15.56	20.4806
15.78	471.307
16	7.40927
16.22	4.87181
16.44	3.09017
16.66	1.33728
16.88	3.71023
17.1	0.211961
17.32	0.584586
17.54	0.969934
17.76	5.38457
17.98	4.58114
18.2	5.79608
18.42	6.95938
18.64	2.70401
18.86	10.7097
19.08	8.66216
19.3	1.48447
19.52	8.31753
19.74	1.14626
19.96	12.9467
20.18	5.79825
20.4	30.7426
20.62	2.52936
20.84	9.43611
21.06	19.7481
21.28	3.8819
21.5	2.08694
21.72	15.3884
21.94	2.55374
22.16	11.7322
22.38	5.75072
22.6	3.57531
22.82	6.54624
23.04	10.3117
23.26	3.09636
23.48	5.65837
23.7	5.05215
23.92	18.8352
24.14	328.755
24.36	14.4488
24.58	1.21453
24.8	9.14404
25.02	5.0778
25.24	5.9959
25.46	9.9483
25.68	31.0093
25.9	149.096
26.12	9.68665
26.34	7.93319
26.56	0.18546
26.78	6.56844
27	11.8908
27.22	7.02085
27.44	6.16142
27.66	4.40179
27.88	0.501301
28.1	5.44135
28.32	6.36089
28.54	7.22664
28.76	0.117653
28.98	8.77032
29.2	7.28151
29.42	166.265
29.64	7.5378
29.86	9.58565
30.08	3.29787
30.3	6.12741
30.52	4.03805
30.74	6.94577
30.96	1.22089
31.18	1.54479
31.4	24.4682
31.62	19.512
31.84	192.404
32.06	2.73969
32.28	9.63187
32.5	7.84945
32.72	2.0925
32.94	8.87227
33.16	55.8511
33.38	4.5107
33.6	7.65655
33.82	5.58141
34.04	13.1938
34.26	2.16555
34.48	2.13178
34.7	4.96636
34.92	7.63436
35.14	30.5788
35.36	19.6642
35.58	90.5871
35.8	68.0718
36.02	8.38375
36.24	5.56365
36.46	3.6254
36.68	4.69871
36.9	1.183
37.12	4.9445
37.34	3.14763
37.56	2.04036
37.78	26.3859
38	373.582
38.22	17.5126
38.44	2.1837
38.66	6.09872
38.88	3.19064
39.1	1.33798
39.32	0.462364
39.54	2.5404
39.76	7.61261
39.98	44.0671
40.2	7.97691
40.42	0.800776
40.64	11.732
40.86	0.744756
41.08	6.14642
41.3	5.39491
41.52	30.1757
41.74	53.9403
41.96	3.69555
42.18	2.50774
42.4	0.091053
42.62	0.678226
42.84	11.5908
43.06	16.8585
43.28	112.516
43.5	34.8474
43.72	3.39739
43.94	11.3135
44.16	1.71164
44.38	5.2911
44.6	35.3589
44.82	7.67214
45.04	45.0318
45.26	274.687
45.48	15.0271
45.7	10.2995
45.92	4.54104
46.14	0.211127
46.36	0.9133
46.58	5.94543
46.8	13.9255
47.02	5.92321
47.24	6.75151
47.46	2.38345
47.68	42.8766
47.9	15.7669
48.12	28.2856
48.34	10.3933
48.56	35.5288
48.78	4.87036
49	2.78363
49.22	3.49843
49.44	49.8736
49.66	3.50498
49.88	0.758828
50.1	3.94819
50.32	1.63327
50.54	10.6603
50.76	5.6545
50.98	3.01685
51.2	2.86929
51.42	7.45229
51.64	1.98325
51.86	5.39135
52.08	5.43396
52.3	5.78355
52.52	6.07943
52.74	23.5006
52.96	63.6207
53.18	194.274
53.4	11.4585
53.62	8.3213
53.84	6.73799
54.06	25.4312
54.28	19.5374
54.5	163.195
54.72	32.6855
54.94	0.267828
55.16	3.70599
55.38	5.19907
55.6	12.321
55.82	1.33875
56.04	1.65792
56.26	3.99646
56.48	5.32253
56.7	7.46447
56.92	51.2849
57.14	13.8798
57.36	44.8732
57.58	83.749
57.8	13.6986
58.02	5.84887
58.24	1.22914
58.46	7.6311
58.68	7.73674
58.9	7.91996
59.12	8.06581
59.34	8.90366
59.56	5.72045
59.78	20.6354
60	10.8182
60.22	20.0958
60.44	10.4549
60.66	11.8606
60.88	13.1584
61.1	24.547
61.32	4.74143
61.54	3.86767
61.76	2.85419
61.98	3.61301
62.2	1.10162
62.42	12.7897
62.64	5.48288
62.86	23.974
63.08	12.2791
63.3	5.76386
63.52	3.90052
63.74	10.9588
63.96	81.1625
64.18	112.85
64.4	6.40957
64.62	3.90828
64.84	0.581981
65.06	5.32096
65.28	13.0269
65.5	214.804
65.72	234.584
65.94	8.58713
66.16	105.329
66.38	60.0198
66.6	16.3521
66.82	8.05089
67.04	5.35812
67.26	8.65713
67.48	10.9803
67.7	2.3419
67.92	0.274229
68.14	27.4087
68.36	12.1778
68.58	5.09109
68.8	6.39003
69.02	1.76531
69.24	10.0813
69.46	10.1673
69.68	9.28084
69.9	3.95695
70.12	21.4185
70.34	22.9216
70.56	0.017255
70.78	5.19855
71	0.387237
71.22	0.453969
71.44	6.54429
71.66	11.6134
71.88	4.71512
72.1	9.75784
72.32	2.15702
72.54	2.36215
72.76	7.74446
72.98	0.246991
73.2	43.7699
73.42	21.5216
73.64	4.28423
73.86	4.174
74.08	6.03661
74.3	5.84866
74.52	2.69331
74.74	4.45215
74.96	9.20971
75.18	11.4113
75.4	27.1863
75.62	19.1389
75.84	1.1176
76.06	0.752756
76.28	1.30254
76.5	6.32768
76.72	10.3602
76.94	13.4026
77.16	7.867
77.38	20.6305
77.6	13.5346
77.82	12.5425
78.04	2.55687
78.26	8.51895
78.48	6.40987
78.7	5.4333
78.92	9.42442
79.14	21.4392
79.36	14.4849
79.58	7.18826
79.8	2.19948
80.02	20.3136
80.24	13.5428
80.46	12.8873
80.68	9.12802
80.9	1.50864
81.12	7.5585
81.34	1.70004
81.56	4.79924
81.78	2.84753
82	1.18544
82.22	2.68391
82.44	7.37069
82.66	4.60957
82.88	8.46801
83.1	4.44742
83.32	7.27987
83.54	14.5686
83.76	1.4867
83.98	9.62238
84.2	8.59443
84.42	5.62101
84.64	2.62536
84.86	13.3636
85.08	7.19559
85.3	26.2105
85.52	10.279
85.74	1.36461
85.96	10.1977
86.18	18.4234
86.4	2.31593
86.62	4.36911
86.84	9.32246
87.06	0.393853
87.28	3.69833
87.5	9.58949
87.72	29.6425
87.94	3.58157
88.16	5.69426
88.38	2.74833
88.6	8.68618
88.82	4.81002
89.04	2.0746
89.26	3.0235
89.48	6.37816
89.7	0.15192
89.92	3.98261
