Measurement: Powder, Xray Data XY Processed
Mineral: Papagoite
Rruff sample: R040182
Ideal chemistry: CaCu^2+^AlSi_2_O_6_(OH)_3_
Locality: Ajo, Pima County, Arizona, USA
Source: University of Arizona Mineral Museum
Description: Blue crusty coating
Diffraction sample description: Powder
Measured chemistry: Ca_0.97_Cu_1.00_Al_0.98_Si_2.03_O_6_(OH)_3_
Cell parameters: a: 12.9202(6) b: 11.490(1) c: 4.6956(2) alpha: 90. beta: 100.742(5) gamma: 90. volume: 684.89(4) crystal system: monoclinic
x	intensity
5	0
5.22	0.091753
5.44	11.9449
5.66	5.26101
5.88	18.5472
6.1	11.3642
6.32	13.3269
6.54	19.0351
6.76	5.88604
6.98	6.85475
7.2	5.44487
7.42	11.4626
7.64	5.61921
7.86	8.67331
8.08	1.70665
8.3	17.7131
8.52	12.5398
8.74	17.4625
8.96	13.6685
9.18	16.5032
9.4	25.3034
9.62	2.46463
9.84	16.1816
10.06	17.141
10.28	12.1516
10.5	9.82787
10.72	4.80803
10.94	1.32922
11.16	10.2051
11.38	17.6054
11.6	15.4818
11.82	15.3795
12.04	13.4177
12.26	13.8117
12.48	19.2119
12.7	10.052
12.92	4.99966
13.14	10.6343
13.36	1.31952
13.58	1.54724
13.8	16.5377
14.02	185.728
14.24	9.97021
14.46	2.85906
14.68	14.8583
14.9	7.81691
15.12	13.9611
15.34	19.7355
15.56	14.883
15.78	6.26198
16	9.73267
16.22	8.14554
16.44	3.20688
16.66	15.3442
16.88	10.2196
17.1	10.5199
17.32	9.51816
17.54	19.5515
17.76	5.99734
17.98	3.81932
18.2	13.0329
18.42	5.51989
18.64	18.3691
18.86	2.60939
19.08	1.08649
19.3	179.064
19.52	12.3325
19.74	1.97029
19.96	6.49669
20.18	15.0364
20.4	13.6198
20.62	34.307
20.84	123.229
21.06	20.9612
21.28	14.2109
21.5	8.31214
21.72	21.8689
21.94	9.77045
22.16	3.70596
22.38	29.0518
22.6	11.3291
22.82	8.86081
23.04	241.407
23.26	14.4801
23.48	8.87159
23.7	16.5089
23.92	10.3483
24.14	12.6338
24.36	36.8772
24.58	34.753
24.8	4.16961
25.02	6.50758
25.24	19.6337
25.46	16.7689
25.68	27.8066
25.9	211.971
26.12	20.7277
26.34	0.12188
26.56	22.8327
26.78	138.553
27	159.617
27.22	2.84445
27.44	9.11749
27.66	0.2649
27.88	19.5914
28.1	10.3125
28.32	28.6607
28.54	4.41408
28.76	7.22733
28.98	7.59984
29.2	5.07139
29.42	19.9597
29.64	2.61621
29.86	2.34969
30.08	21.3432
30.3	59.3802
30.52	14.7398
30.74	5.25289
30.96	44.7433
31.18	425.454
31.4	3.07548
31.62	59.371
31.84	7.84056
32.06	158.452
32.28	25.0254
32.5	9.30899
32.72	0.716805
32.94	9.75427
33.16	2.65151
33.38	7.77837
33.6	8.46119
33.82	5.33324
34.04	7.15369
34.26	45.006
34.48	30.4663
34.7	11.1008
34.92	47.1769
35.14	7.54553
35.36	23.3686
35.58	0.999187
35.8	23.2548
36.02	13.601
36.24	71.0513
36.46	7.65919
36.68	9.45211
36.9	102.85
37.12	0.625092
37.34	23.6247
37.56	12.294
37.78	15.334
38	58.842
38.22	17.4704
38.44	13.2191
38.66	3.20249
38.88	2.81569
39.1	42.8122
39.32	61.0476
39.54	13.3249
39.76	22.9833
39.98	4.14213
40.2	12.3429
40.42	16.3957
40.64	8.38919
40.86	61.913
41.08	96.1991
41.3	11.6258
41.52	12.9763
41.74	3.81625
41.96	18.1123
42.18	73.8361
42.4	32.1938
42.62	15.1851
42.84	3.83725
43.06	4.53915
43.28	5.67931
43.5	12.715
43.72	9.10301
43.94	6.01285
44.16	26.4912
44.38	16.4982
44.6	15.1294
44.82	2.78262
45.04	10.6784
45.26	19.5628
45.48	11.9823
45.7	63.4639
45.92	24.8309
46.14	1.78312
46.36	7.0321
46.58	3.56052
46.8	15.3425
47.02	21.3529
47.24	10.4598
47.46	36.2056
47.68	35.3009
47.9	10.8816
48.12	5.59262
48.34	8.55628
48.56	3.8661
48.78	92.5387
49	18.5872
49.22	0.395744
49.44	5.06164
49.66	3.29998
49.88	10.7334
50.1	3.98909
50.32	17.5041
50.54	13.3032
50.76	37.1814
50.98	25.4208
51.2	12.2262
51.42	6.48625
51.64	9.93677
51.86	13.5532
52.08	5.77972
52.3	18.8694
52.52	9.475
52.74	10.7866
52.96	15.7214
53.18	34.475
53.4	28.3727
53.62	8.23922
53.84	43.8216
54.06	7.3783
54.28	14.6738
54.5	21.7224
54.72	22.5415
54.94	48.0153
55.16	89.0493
55.38	15.384
55.6	7.57809
55.82	12.653
56.04	19.6476
56.26	45.124
56.48	37.5564
56.7	3.01908
56.92	12.0061
57.14	5.94529
57.36	12.0505
57.58	11.71
57.8	10.0726
58.02	25.602
58.24	11.6159
58.46	6.71438
58.68	5.55164
58.9	1.93652
59.12	30.7702
59.34	24.7501
59.56	0.764645
59.78	16.886
60	31.3863
60.22	23.6248
60.44	16.0546
60.66	29.0903
60.88	36.3073
61.1	0.685143
61.32	3.35907
61.54	6.82168
61.76	5.12367
61.98	6.91917
62.2	5.92655
62.42	19.5346
62.64	22.6641
62.86	20.1972
63.08	27.5355
63.3	26.2289
63.52	19.3267
63.74	6.5296
63.96	5.09638
64.18	14.7443
64.4	18.7151
64.62	12.6995
64.84	17.8762
65.06	22.8589
65.28	34.6133
65.5	23.0671
65.72	26.6734
65.94	12.6518
66.16	2.68909
66.38	5.80665
66.6	5.24779
66.82	25.9992
67.04	8.77661
67.26	33.52
67.48	19.555
67.7	5.47169
67.92	12.8716
68.14	23.1557
68.36	41.5463
68.58	38.0427
68.8	3.53667
69.02	10.9749
69.24	7.72843
69.46	24.5996
69.68	19.3561
69.9	12.191
70.12	7.93302
70.34	9.97384
70.56	12.4547
70.78	10.5603
71	1.55857
71.22	10.7231
71.44	14.7122
71.66	9.53373
71.88	19.611
72.1	5.40365
72.32	21.2406
72.54	18.1084
72.76	8.72475
72.98	7.7618
73.2	11.2416
73.42	28.9625
73.64	34.9247
73.86	33.0977
74.08	11.6985
74.3	25.2389
74.52	4.47076
74.74	8.85698
74.96	2.54853
75.18	12.0367
75.4	21.1416
75.62	25.3256
75.84	13.6697
76.06	3.69771
76.28	15.8534
76.5	6.16332
76.72	17.3212
76.94	6.21021
77.16	11.9333
77.38	20.4341
77.6	24.2599
77.82	15.2099
78.04	1.57967
78.26	10.6142
78.48	13.6691
78.7	5.75441
78.92	13.8998
79.14	3.90048
79.36	6.44337
79.58	15.7462
79.8	18.1919
80.02	5.59174
80.24	0.215914
80.46	5.62875
80.68	2.76985
80.9	9.09088
81.12	15.1994
81.34	7.96756
81.56	14.7991
81.78	12.6534
82	11.3206
82.22	7.27124
82.44	9.14243
82.66	12.201
82.88	7.1893
83.1	34.2558
83.32	19.3421
83.54	15.3403
83.76	10.2851
83.98	13.1013
84.2	1.59662
84.42	4.63049
84.64	16.6471
84.86	6.5712
85.08	4.9986
85.3	6.30249
85.52	5.86359
85.74	4.67282
85.96	10.647
86.18	3.33453
86.4	12.7783
86.62	5.30593
86.84	5.59364
87.06	23.2367
87.28	2.15258
87.5	2.00319
87.72	5.34603
87.94	9.80881
88.16	0.638802
88.38	20.8972
88.6	16.7248
88.82	11.1281
89.04	12.831
89.26	1.00341
89.48	7.51808
89.7	9.65612
89.92	12.8321
