Measurement: Powder, Xray Data XY Processed
Mineral: Parabutlerite
Rruff sample: R060754
Ideal chemistry: Fe^3+^S^6+^O_4_(OH)2H_2_O
Locality: Chuquicamata, Chile
Source: Michael Scott
Description: Aggregate of pale orange grains
Diffraction sample description: Powder
Cell parameters: a: 7.398(3) b: 20.064(1) c: 7.2281(9) alpha: 90 beta: 90 gamma: 90 volume: 1072.8(4) crystal system: orthorhombic
x	intensity
5	0
5.22	22.5649
5.44	11.2286
5.66	22.5683
5.88	20.5334
6.1	21.4399
6.32	3.27277
6.54	11.7487
6.76	22.2056
6.98	20.5011
7.2	15.6086
7.42	10.8996
7.64	3.19321
7.86	22.3857
8.08	24.5166
8.3	22.2192
8.52	27.604
8.74	20.4638
8.96	8.02406
9.18	9.45074
9.4	14.9093
9.62	26.0771
9.84	24.2581
10.06	32.3695
10.28	24.5787
10.5	1.45697
10.72	2.52352
10.94	28.5941
11.16	11.5384
11.38	24.7299
11.6	33.2694
11.82	1.51653
12.04	1.70241
12.26	9.01479
12.48	26.7688
12.7	17.7281
12.92	2.12872
13.14	23.7093
13.36	23.1152
13.58	8.35055
13.8	23.3228
14.02	5.23267
14.24	13.1057
14.46	16.762
14.68	17.6677
14.9	10.575
15.12	107.881
15.34	22.1876
15.56	7.79053
15.78	18.7523
16	38.8991
16.22	22.4753
16.44	10.9767
16.66	4.55595
16.88	4.90494
17.1	22.5348
17.32	23.0832
17.54	57.3395
17.76	145.359
17.98	21.6983
18.2	15.7676
18.42	25.0949
18.64	4.29484
18.86	0.205048
19.08	13.5334
19.3	13.1163
19.52	15.9409
19.74	6.59039
19.96	36.6063
20.18	17.5415
20.4	14.5978
20.62	7.72972
20.84	24.6814
21.06	21.8841
21.28	35.1246
21.5	13.0348
21.72	41.3546
21.94	29.9916
22.16	7.41531
22.38	28.9982
22.6	23.5355
22.82	21.8453
23.04	25.8786
23.26	1.80911
23.48	7.24296
23.7	23.1069
23.92	0.937935
24.14	16.7148
24.36	32.783
24.58	46.7664
24.8	23.0148
25.02	41.6199
25.24	14.1146
25.46	10.5666
25.68	7.64204
25.9	24.2981
26.12	15.2218
26.34	4.77648
26.56	20.1964
26.78	1.39725
27	20.6134
27.22	9.02556
27.44	12.5175
27.66	12.8177
27.88	40.2531
28.1	16.3674
28.32	0.785217
28.54	165.975
28.76	8.10101
28.98	12.1899
29.2	18.3059
29.42	15.4978
29.64	15.9969
29.86	3.033
30.08	7.0761
30.3	7.39419
30.52	41.6587
30.74	19.913
30.96	3.75662
31.18	13.3058
31.4	5.86552
31.62	7.72934
31.84	30.4817
32.06	17.0939
32.28	15.5163
32.5	16.6487
32.72	12.3321
32.94	18.313
33.16	32.2295
33.38	15.7294
33.6	15.4348
33.82	6.07318
34.04	5.42982
34.26	12.7454
34.48	26.289
34.7	12.5936
34.92	16.4243
35.14	4.84207
35.36	0.953659
35.58	21.9251
35.8	42.3183
36.02	34.4532
36.24	8.1306
36.46	14.7319
36.68	15.7871
36.9	10.2863
37.12	22.945
37.34	17.126
37.56	29.6752
37.78	38.2135
38	17.1136
38.22	28.7358
38.44	41.5316
38.66	8.49114
38.88	21.9887
39.1	9.79661
39.32	12.9155
39.54	32.3326
39.76	39.4975
39.98	18.3622
40.2	14.9615
40.42	24.5895
40.64	20.4605
40.86	14.4255
41.08	33.2938
41.3	14.3574
41.52	14.2782
41.74	12.5851
41.96	18.633
42.18	10.0452
42.4	11.2458
42.62	30.0247
42.84	0.735321
43.06	6.42639
43.28	13.978
43.5	20.7292
43.72	11.9222
43.94	9.77844
44.16	5.15327
44.38	2.04437
44.6	15.2433
44.82	14.5338
45.04	1.4284
45.26	28.5214
45.48	3.9883
45.7	31.7144
45.92	11.8109
46.14	25.6799
46.36	12.2642
46.58	16.3793
46.8	17.034
47.02	25.888
47.24	18.8487
47.46	22.1695
47.68	4.17444
47.9	5.34463
48.12	14.0069
48.34	5.26125
48.56	7.78381
48.78	21.4501
49	28.2239
49.22	30.2681
49.44	1.55412
49.66	0.385445
49.88	34.0359
50.1	19.8128
50.32	8.6001
50.54	6.29253
50.76	19.48
50.98	13.0963
51.2	11.7113
51.42	9.98191
51.64	0.809853
51.86	32.9683
52.08	24.3025
52.3	28.9075
52.52	15.4775
52.74	37.6306
52.96	4.87628
53.18	27.0856
53.4	33.3728
53.62	18.3549
53.84	17.8393
54.06	12.2546
54.28	1.48569
54.5	1.82282
54.72	19.2194
54.94	11.0479
55.16	11.1538
55.38	4.63923
55.6	2.86854
55.82	7.80823
56.04	31.7726
56.26	26.0412
56.48	16.0779
56.7	30.1966
56.92	13.7232
57.14	19.9464
57.36	1.1121
57.58	10.1902
57.8	3.25194
58.02	28.45
58.24	3.75488
58.46	26.9374
58.68	14.5487
58.9	7.4152
59.12	18.9689
59.34	21.9617
59.56	5.10863
59.78	28.2699
60	18.1552
60.22	6.21568
60.44	10.9075
60.66	23.046
60.88	18.9565
61.1	14.1995
61.32	20.3385
61.54	5.7904
61.76	6.88943
61.98	20.2607
62.2	16.9978
62.42	9.09608
62.64	6.36476
62.86	0.215553
63.08	26.93
63.3	5.01234
63.52	21.0605
63.74	23.9376
63.96	4.59806
64.18	7.97381
64.4	17.7722
64.62	16.8498
64.84	3.87795
65.06	18.8106
65.28	5.8636
65.5	8.88657
65.72	29.8058
65.94	16.2345
66.16	14.817
66.38	20.2328
66.6	18.5253
66.82	9.34499
67.04	13.9557
67.26	20.3342
67.48	34.5889
67.7	14.5111
67.92	26.5203
68.14	19.7175
68.36	20.2355
68.58	22.0637
68.8	29.1955
69.02	15.1555
69.24	7.76836
69.46	0.869949
69.68	1.93012
69.9	9.12696
70.12	33.498
70.34	13.6812
70.56	23.6419
70.78	0.621834
71	26.7701
71.22	7.95189
71.44	28.9675
71.66	1.01991
71.88	9.87604
72.1	28.6258
72.32	0.716209
72.54	17.8443
72.76	9.90139
72.98	13.6513
73.2	8.01328
73.42	7.37425
73.64	21.4575
73.86	27.6481
74.08	19.8347
74.3	20.0977
74.52	16.9114
74.74	19.0381
74.96	14.9224
75.18	6.71967
75.4	18.233
75.62	22.3039
75.84	18.6111
76.06	11.619
76.28	9.87077
76.5	19.2395
76.72	13.4233
76.94	10.3023
77.16	30.3329
77.38	12.7427
77.6	19.7476
77.82	18.7892
78.04	4.05248
78.26	6.33391
78.48	16.2525
78.7	9.23187
78.92	16.8109
79.14	13.8415
79.36	14.016
79.58	7.40704
79.8	16.919
80.02	10.8172
80.24	13.1172
80.46	13.9122
80.68	28.2535
80.9	5.45091
81.12	2.91547
81.34	20.1964
81.56	17.2305
81.78	29.922
82	12.7464
82.22	30.5004
82.44	19.2817
82.66	21.6382
82.88	13.5265
83.1	12.7485
83.32	22.2412
83.54	22.0263
83.76	23.6485
83.98	12.0342
84.2	11.5956
84.42	13.8529
84.64	20.6376
84.86	14.2266
85.08	26.3195
85.3	6.01076
85.52	12.5045
85.74	11.3537
85.96	10.2745
86.18	18.5184
86.4	15.1745
86.62	14.3559
86.84	19.0414
87.06	7.96178
87.28	38.4781
87.5	8.57946
87.72	0.674541
87.94	4.466
88.16	25.3061
88.38	7.5268
88.6	12.8593
88.82	15.5055
89.04	14.9414
89.26	28.8543
89.48	30.2839
89.7	6.81533
89.92	12.3299
