Measurement: Powder, Xray Data XY Processed
Mineral: Paramontroseite
Rruff sample: R050391
Ideal chemistry: V^4+^O_2_
Locality: J.J. mine, Buell Canyon District, Montrose County, Colorado, USA
Source: University of Arizona Mineral Museum
Description: Black massive, radioactive
Diffraction sample description: Powder
Measured chemistry: gray phase: (V^4+^_0.82_Fe^3+^_0.09_U^6+^_0.04_V^5+^_0.03_Al_0.02_)_Î£=1_O_2_; lightest phase is uranophane
Cell parameters: a: 4.9009(4) b: 9.3839(8) c: 2.9080(5) alpha: 90 beta: 90 gamma: 90 volume: 133.74(2) crystal system: orthorhombic
x	intensity
5	0
5.22	3.4899
5.44	11.4171
5.66	7.9011
5.88	21.3637
6.1	12.1311
6.32	22.1672
6.54	23.4097
6.76	27.1219
6.98	10.0461
7.2	12.8951
7.42	19.9429
7.64	8.49169
7.86	0.023296
8.08	11.0815
8.3	8.24253
8.52	6.93677
8.74	11.7714
8.96	5.16832
9.18	14.9626
9.4	12.9581
9.62	10.4361
9.84	11.9284
10.06	13.3825
10.28	16.2495
10.5	20.0167
10.72	7.37645
10.94	14.3872
11.16	12.3753
11.38	12.3787
11.6	11.6391
11.82	6.71173
12.04	2.7448
12.26	15.7102
12.48	10.4585
12.7	4.44171
12.92	17.3624
13.14	10.6941
13.36	14.9117
13.58	5.24917
13.8	3.82982
14.02	8.46846
14.24	14.7356
14.46	1.19674
14.68	13.5521
14.9	2.62937
15.12	15.5554
15.34	1.68495
15.56	17.3008
15.78	0.799873
16	7.27991
16.22	0.233507
16.44	5.77863
16.66	23.5763
16.88	4.6562
17.1	16.9941
17.32	3.99115
17.54	5.68756
17.76	11.5381
17.98	0.181673
18.2	3.56191
18.42	2.15153
18.64	6.21165
18.86	15.9047
19.08	13.4613
19.3	1.32833
19.52	3.28314
19.74	6.83617
19.96	1.45196
20.18	9.159
20.4	45.2172
20.62	10.3824
20.84	10.5814
21.06	9.5433
21.28	10.0782
21.5	3.7539
21.72	3.98625
21.94	7.25608
22.16	2.42706
22.38	4.44439
22.6	11.8877
22.82	4.77389
23.04	10.2896
23.26	19.0471
23.48	11.2533
23.7	22.0239
23.92	11.3711
24.14	5.56884
24.36	8.58653
24.58	1.35024
24.8	8.94902
25.02	11.9781
25.24	3.99493
25.46	13.7272
25.68	13.3241
25.9	17.9548
26.12	15.8277
26.34	133.081
26.56	10.954
26.78	8.66425
27	10.2569
27.22	7.14251
27.44	9.30129
27.66	4.0281
27.88	10.4637
28.1	9.15125
28.32	10.2348
28.54	14.3043
28.76	18.7483
28.98	13.455
29.2	11.3043
29.42	17.2627
29.64	4.08685
29.86	24.7212
30.08	1.60668
30.3	9.49941
30.52	6.1171
30.74	13.1509
30.96	17.3189
31.18	23.4848
31.4	4.5659
31.62	2.79267
31.84	16.8784
32.06	12.1579
32.28	4.898
32.5	18.2499
32.72	13.4596
32.94	5.64174
33.16	8.42316
33.38	11.4499
33.6	15.6673
33.82	30.9008
34.04	95.8692
34.26	4.2353
34.48	4.51731
34.7	17.8934
34.92	10.5605
35.14	8.60896
35.36	7.61192
35.58	9.31103
35.8	8.5013
36.02	16.4819
36.24	11.2241
36.46	34.5333
36.68	2.27554
36.9	10.0576
37.12	14.3433
37.34	14.9567
37.56	6.53715
37.78	0.852123
38	13.0724
38.22	12.1881
38.44	17.1214
38.66	2.24927
38.88	7.4526
39.1	7.34563
39.32	10.2575
39.54	0.316971
39.76	5.94476
39.98	7.44599
40.2	13.405
40.42	5.05754
40.64	5.87275
40.86	35.2832
41.08	2.16457
41.3	6.58006
41.52	15.758
41.74	14.7499
41.96	7.92994
42.18	11.1664
42.4	9.44119
42.62	15.6473
42.84	15.3876
43.06	1.08306
43.28	6.73066
43.5	7.03487
43.72	7.97349
43.94	0.263363
44.16	15.3076
44.38	5.94437
44.6	4.4533
44.82	13.5355
45.04	17.7109
45.26	10.1918
45.48	6.86898
45.7	21.1226
45.92	9.90628
46.14	10.6252
46.36	9.38567
46.58	20.2801
46.8	6.64775
47.02	16.41
47.24	8.56729
47.46	11.5993
47.68	5.22907
47.9	1.74011
48.12	0.166639
48.34	11.3483
48.56	14.4549
48.78	7.32321
49	10.2978
49.22	12.1382
49.44	9.75199
49.66	8.30408
49.88	10.8586
50.1	0.235342
50.32	12.0062
50.54	0.273615
50.76	3.79135
50.98	12.7986
51.2	5.85001
51.42	0.572062
51.64	13.6871
51.86	5.16493
52.08	19.4127
52.3	15.4672
52.52	1.1417
52.74	4.10697
52.96	12.0962
53.18	13.6821
53.4	1.28789
53.62	9.44457
53.84	8.75787
54.06	11.8322
54.28	11.1383
54.5	1.27571
54.72	5.64192
54.94	8.9937
55.16	10.2244
55.38	6.45061
55.6	4.63371
55.82	2.28578
56.04	19.6469
56.26	5.34574
56.48	1.07442
56.7	14.1117
56.92	12.9444
57.14	5.55878
57.36	20.0941
57.58	16.3936
57.8	5.33112
58.02	3.5258
58.24	11.4068
58.46	3.46825
58.68	4.43372
58.9	5.40663
59.12	11.013
59.34	7.19913
59.56	5.07002
59.78	14.539
60	22.4613
60.22	18.1174
60.44	1.62978
60.66	7.11888
60.88	4.95299
61.1	4.77983
61.32	2.66264
61.54	8.59238
61.76	4.53968
61.98	22.2039
62.2	20.1531
62.42	22.49
62.64	3.64138
62.86	14.0864
63.08	0.349911
63.3	6.95727
63.52	5.78827
63.74	10.4818
63.96	10.6373
64.18	13.5403
64.4	15.1341
64.62	3.6747
64.84	8.41128
65.06	10.9082
65.28	3.88563
65.5	19.2545
65.72	13.7685
65.94	8.50198
66.16	15.7997
66.38	3.06663
66.6	14.4227
66.82	4.55342
67.04	0.787146
67.26	5.91802
67.48	15.7822
67.7	12.9565
67.92	4.38576
68.14	6.63616
68.36	8.57527
68.58	2.40721
68.8	4.93909
69.02	2.88125
69.24	10.2253
69.46	10.4184
69.68	2.57885
69.9	7.30716
70.12	16.7193
70.34	12.7475
70.56	13.908
70.78	9.27953
71	14.1793
71.22	3.91947
71.44	20.8819
71.66	10.3899
71.88	16.1617
72.1	7.96249
72.32	2.41459
72.54	1.41584
72.76	8.11942
72.98	11.5579
73.2	18.936
73.42	9.59808
73.64	7.62027
73.86	3.30862
74.08	9.5175
74.3	3.16594
74.52	1.01657
74.74	15.4556
74.96	8.85452
75.18	12.2393
75.4	11.0441
75.62	6.93616
75.84	10.0571
76.06	10.0921
76.28	12.4786
76.5	13.5361
76.72	10.7862
76.94	2.61
77.16	2.27742
77.38	0.411133
77.6	16.3747
77.82	1.69152
78.04	14.4198
78.26	11.6937
78.48	0.828587
78.7	10.8641
78.92	12.8855
79.14	8.86132
79.36	3.87583
79.58	6.37894
79.8	11.2442
80.02	3.23434
80.24	6.2737
80.46	9.58147
80.68	6.50653
80.9	17.3111
81.12	3.26018
81.34	10.4537
81.56	5.28855
81.78	12.7986
82	12.3154
82.22	2.5002
82.44	17.5122
82.66	5.7968
82.88	10.4374
83.1	11.3988
83.32	16.4173
83.54	7.59763
83.76	4.34646
83.98	12.0864
84.2	2.16911
84.42	8.3672
84.64	20.2518
84.86	7.38598
85.08	3.11455
85.3	10.9653
85.52	9.16013
85.74	9.17727
85.96	8.1441
86.18	24.284
86.4	14.3834
86.62	13.1099
86.84	5.35518
87.06	1.39561
87.28	8.20269
87.5	14.3637
87.72	13.337
87.94	12.4863
88.16	10.4652
88.38	9.36306
88.6	13.3085
88.82	8.00542
89.04	4.5925
89.26	9.61203
89.48	3.33146
89.7	1.53281
89.92	2.76488
