Measurement: Powder, Xray Data XY Processed
Mineral: Paravauxite
Rruff sample: R050577
Ideal chemistry: Fe^2+^Al_2_(PO_4_)_2_(OH)_2_8H_2_O
Locality: Llallagua, Bolivia
Source: University of Arizona Mineral Museum
Description: Colorless bladed crystal
Diffraction sample description: Powder
Measured chemistry: (Fe^2+^_0.93_Mg_0.04_Mn_0.03_)Al_2_(PO_4_)_2_((OH)_0.93_F_0.07_)_2_Î‡8H_2_O
Cell parameters: a: 5.2272(7) b: 10.5494(9) c: 6.961(1) alpha: 106.92(2) beta: 110.72(1) gamma: 72.13(1) volume: 334.47(6) crystal system: triclinic
x	intensity
5	0
5.22	21.037
5.44	4.641
5.66	28.815
5.88	30.958
6.1	7.743
6.32	10.489
6.54	25.538
6.76	7.575
6.98	20.648
7.2	4.613
7.42	12.497
7.64	8.735
7.86	18.947
8.08	22.144
8.3	19.477
8.52	15.543
8.74	10.448
8.96	563.062
9.18	18.839
9.4	33.213
9.62	4.652
9.84	2.85
10.06	25.045
10.28	7.113
10.5	17.016
10.72	10.939
10.94	15.236
11.16	17.382
11.38	4.793
11.6	8.022
11.82	22.902
12.04	11.187
12.26	26.32
12.48	18.957
12.7	6.531
12.92	2.887
13.14	10.373
13.36	26.593
13.58	9.147
13.8	74.865
14.02	27.281
14.24	21.594
14.46	6.717
14.68	11.728
14.9	49.251
15.12	8.543
15.34	21.896
15.56	14.972
15.78	3.841
16	37.023
16.22	14.357
16.44	4.076
16.66	10.75
16.88	12.229
17.1	18.943
17.32	4.017
17.54	13.778
17.76	2.435
17.98	157.564
18.2	33.031
18.42	36.165
18.64	134.665
18.86	24.206
19.08	16.589
19.3	11.842
19.52	28.208
19.74	31.078
19.96	15.535
20.18	6.574
20.4	27.036
20.62	7.808
20.84	2.557
21.06	14.954
21.28	16.894
21.5	38.235
21.72	9.678
21.94	1.976
22.16	23.925
22.38	26.216
22.6	20.47
22.82	80.179
23.04	19.197
23.26	22.926
23.48	19.762
23.7	21.571
23.92	8.82
24.14	19.284
24.36	4.768
24.58	61.522
24.8	24.063
25.02	34.303
25.24	36.228
25.46	1.955
25.68	12.442
25.9	26.742
26.12	5.941
26.34	19.182
26.56	16.761
26.78	4.599
27	11.69
27.22	35.022
27.44	24.601
27.66	14.05
27.88	32.88
28.1	49.287
28.32	19.397
28.54	21.688
28.76	29.979
28.98	96.817
29.2	15.327
29.42	2.996
29.64	11.899
29.86	3.635
30.08	14.036
30.3	12.454
30.52	10.713
30.74	8.772
30.96	10.474
31.18	4.016
31.4	298.32
31.62	11.851
31.84	12.241
32.06	5.369
32.28	13.638
32.5	12.409
32.72	18.81
32.94	28.608
33.16	61.579
33.38	15.477
33.6	19.919
33.82	15.172
34.04	3.128
34.26	1.751
34.48	20.524
34.7	116.09
34.92	24.008
35.14	9.057
35.36	1.443
35.58	7.514
35.8	4.163
36.02	12.584
36.24	16.35
36.46	63.281
36.68	21.72
36.9	16.647
37.12	53.098
37.34	1.853
37.56	23.63
37.78	49.892
38	43.843
38.22	40.242
38.44	13.897
38.66	0.142
38.88	17.683
39.1	16.959
39.32	9.869
39.54	27.025
39.76	14.329
39.98	7.727
40.2	18.17
40.42	2.747
40.64	9.537
40.86	11.45
41.08	11.818
41.3	18.489
41.52	24.466
41.74	3.725
41.96	19.578
42.18	2.432
42.4	20.949
42.62	30.944
42.84	43.278
43.06	20.943
43.28	12.149
43.5	8.313
43.72	12.151
43.94	18.066
44.16	19.036
44.38	14.375
44.6	13.88
44.82	19.232
45.04	57.027
45.26	53.892
45.48	9.276
45.7	7.648
45.92	29.517
46.14	20.187
46.36	13.53
46.58	10.353
46.8	30.187
47.02	8.166
47.24	22.212
47.46	16.654
47.68	17.173
47.9	15.505
48.12	20.829
48.34	21.912
48.56	33.091
48.78	9.715
49	18.61
49.22	17.45
49.44	31.324
49.66	4.07
49.88	17.097
50.1	12.656
50.32	30.507
50.54	6.731
50.76	5.719
50.98	23.275
51.2	4.293
51.42	12.235
51.64	33.436
51.86	6.513
52.08	35.535
52.3	10.731
52.52	8.372
52.74	9.677
52.96	20.636
53.18	13.726
53.4	6.99
53.62	18.102
53.84	19.304
54.06	5.223
54.28	11.835
54.5	16.595
54.72	8.713
54.94	25.554
55.16	10.507
55.38	18.497
55.6	18.525
55.82	16.255
56.04	46.98
56.26	56.034
56.48	20.536
56.7	37.091
56.92	4.275
57.14	15.072
57.36	6.151
57.58	16.747
57.8	0.233
58.02	21.272
58.24	5.417
58.46	21.778
58.68	19.755
58.9	23.309
59.12	7.796
59.34	10.765
59.56	6.448
59.78	20.146
60	13.405
60.22	20.212
60.44	14.105
60.66	27.609
60.88	17.526
61.1	13.192
61.32	1.84
61.54	16.327
61.76	5.537
61.98	14.325
62.2	1.702
62.42	22.747
62.64	3.869
62.86	23.056
63.08	8.215
63.3	14.498
63.52	7.293
63.74	12.399
63.96	19.474
64.18	18.433
64.4	9.271
64.62	6.263
64.84	24.016
65.06	15.861
65.28	22.764
65.5	9.052
65.72	18.999
65.94	9.836
66.16	10.351
66.38	9.445
66.6	9.811
66.82	21.091
67.04	22.339
67.26	19.316
67.48	16.64
67.7	12.91
67.92	5.326
68.14	19.579
68.36	30.87
68.58	9.17
68.8	10.117
69.02	16.12
69.24	16.61
69.46	14.755
69.68	25.662
69.9	3.506
70.12	18.699
70.34	10.229
70.56	19.462
70.78	14.722
71	19.77
71.22	7.059
71.44	26.584
71.66	6.189
71.88	20.917
72.1	13.301
72.32	12.094
72.54	23.293
72.76	2.013
72.98	12.588
73.2	21.082
73.42	21.996
73.64	0.384
73.86	12.403
74.08	15.825
74.3	11.576
74.52	9.495
74.74	7.731
74.96	9.435
75.18	19.634
75.4	6.29
75.62	23.973
75.84	20.256
76.06	14.852
76.28	3.026
76.5	14.237
76.72	0.466
76.94	3.538
77.16	17.945
77.38	16.776
77.6	22.211
77.82	5.468
78.04	15.265
78.26	5.237
78.48	6.507
78.7	14.769
78.92	24.445
79.14	12.254
79.36	12.561
79.58	17.166
79.8	16.699
80.02	5.984
80.24	0.481
80.46	0.411
80.68	9.404
80.9	15.681
81.12	12.702
81.34	7.874
81.56	22.554
81.78	17.748
82	15.974
82.22	0.873
82.44	8.475
82.66	12.818
82.88	13.836
83.1	26.521
83.32	18.917
83.54	24.808
83.76	9.907
83.98	18.69
84.2	7.751
84.42	20.217
84.64	6.479
84.86	11.896
85.08	8.765
85.3	4.858
85.52	20.988
85.74	16.621
85.96	20.426
86.18	1.513
86.4	14.389
86.62	5.006
86.84	16.751
87.06	12.806
87.28	10.508
87.5	9.304
87.72	2.718
87.94	25.63
88.16	21.102
88.38	20.575
88.6	14.081
88.82	7.388
89.04	19.2
89.26	21.885
89.48	17.775
89.7	14.887
89.92	18.843
