Measurement: Powder, Xray Data XY Processed
Mineral: Paravauxite
Rruff sample: R050468
Ideal chemistry: Fe^2+^Al_2_(PO_4_)_2_(OH)_2_8H_2_O
Locality: Llallagua, Bustillos Province, Potosi, Bolivia
Source: University of Arizona Mineral Museum
Description: Colorless aggregate of tabular crystals
Diffraction sample description: Powder
Measured chemistry: (Fe^2+^_0.94_Mg_0.05_Mn_0.01_)_Σ=1_Al_2.00_(P_1.00_O_4_)_2_((OH)_0.86_F_0.14_)_Σ=2_·8H_2_O
Cell parameters: a: 5.2329(3) b: 10.5526(7) c: 6.9649(4) alpha: 106.881(5) beta: 110.742(7) gamma: 72.113(5) volume: 335.09(3) crystal system: triclinic
x	intensity
5	0
5.22	6.76608
5.44	26.0485
5.66	12.6972
5.88	18.8023
6.1	27.6632
6.32	6.31206
6.54	9.07946
6.76	15.3033
6.98	7.19098
7.2	2.04855
7.42	13.639
7.64	26.9279
7.86	18.3079
8.08	12.5961
8.3	9.87187
8.52	13.7615
8.74	10.7538
8.96	192.547
9.18	46.7491
9.4	7.4793
9.62	7.88752
9.84	4.24146
10.06	16.923
10.28	17.1245
10.5	51.5946
10.72	21.0198
10.94	23.3774
11.16	0.204147
11.38	12.0257
11.6	21.693
11.82	1.33659
12.04	1.74451
12.26	15.7911
12.48	7.76849
12.7	28.7203
12.92	6.33319
13.14	19.1326
13.36	10.7688
13.58	10.6266
13.8	37.9902
14.02	28.6483
14.24	4.70306
14.46	30.3203
14.68	5.24705
14.9	25.7736
15.12	14.9228
15.34	7.41724
15.56	16.7379
15.78	15.5362
16	19.7308
16.22	8.40996
16.44	11.3795
16.66	12.788
16.88	9.3601
17.1	0.539833
17.32	21.4332
17.54	2.31255
17.76	4.89612
17.98	34.3176
18.2	18.1664
18.42	22.2948
18.64	137.947
18.86	8.31091
19.08	17.8598
19.3	12.6539
19.52	10.3852
19.74	19.5885
19.96	9.00029
20.18	1.22981
20.4	10.9624
20.62	13.3179
20.84	9.16602
21.06	22.7879
21.28	15.9176
21.5	35.7262
21.72	14.0953
21.94	2.61893
22.16	5.04388
22.38	12.2249
22.6	63.3629
22.82	49.7912
23.04	1.01951
23.26	36.6992
23.48	16.1132
23.7	6.67302
23.92	14.06
24.14	27.2098
24.36	4.61487
24.58	67.4431
24.8	7.17714
25.02	17.6108
25.24	12.7394
25.46	14.1609
25.68	20.7778
25.9	10.5246
26.12	3.14392
26.34	12.139
26.56	21.6018
26.78	24.394
27	16.6442
27.22	50.461
27.44	8.94538
27.66	9.19836
27.88	22.6181
28.1	52.8411
28.32	54.3865
28.54	0.934113
28.76	28.2905
28.98	74.5969
29.2	20.3601
29.42	10.6465
29.64	17.5308
29.86	21.0986
30.08	6.13904
30.3	9.26845
30.52	12.5797
30.74	26.9213
30.96	6.76498
31.18	21.9995
31.4	158.807
31.62	22.1244
31.84	17.9532
32.06	15.1807
32.28	41.2834
32.5	6.90935
32.72	2.36067
32.94	51.4887
33.16	46.0509
33.38	10.855
33.6	19.1914
33.82	2.16364
34.04	10.9997
34.26	12.2684
34.48	17.2075
34.7	41.001
34.92	25.0178
35.14	4.71717
35.36	33.7749
35.58	19.4797
35.8	2.7576
36.02	26.8335
36.24	31.6868
36.46	19.5992
36.68	15.1261
36.9	4.08988
37.12	21.0905
37.34	5.74834
37.56	19.1739
37.78	41.4662
38	43.7501
38.22	46.4676
38.44	7.38585
38.66	11.3934
38.88	4.33658
39.1	1.22846
39.32	28.8454
39.54	18.6629
39.76	54.24
39.98	47.8009
40.2	29.8539
40.42	15.8127
40.64	20.5592
40.86	6.33832
41.08	8.45517
41.3	9.33018
41.52	10.2097
41.74	24.2844
41.96	30.3458
42.18	1.56435
42.4	1.21209
42.62	3.92242
42.84	31.6822
43.06	7.97501
43.28	36.1599
43.5	29.5981
43.72	11.9854
43.94	10.9672
44.16	3.11733
44.38	27.3737
44.6	15.3663
44.82	30.1469
45.04	15.14
45.26	43.3564
45.48	22.1014
45.7	22.0753
45.92	36.8789
46.14	40.5551
46.36	12.4462
46.58	9.29421
46.8	44.9036
47.02	1.19445
47.24	26.1283
47.46	19.3167
47.68	14.9871
47.9	8.0062
48.12	9.23724
48.34	13.5473
48.56	11.4612
48.78	16.2593
49	2.78403
49.22	29.8774
49.44	11.7354
49.66	17.4167
49.88	26.9976
50.1	30.7396
50.32	78.6649
50.54	23.1807
50.76	25.2986
50.98	8.10775
51.2	8.76789
51.42	5.65589
51.64	3.9372
51.86	35.2888
52.08	28.4666
52.3	24.9981
52.52	17.8016
52.74	29.9252
52.96	3.4548
53.18	21.107
53.4	6.92574
53.62	8.71091
53.84	17.0379
54.06	16.788
54.28	17.3333
54.5	0.290253
54.72	1.04473
54.94	41.5661
55.16	24.0621
55.38	21.543
55.6	3.63791
55.82	16.4614
56.04	20.9752
56.26	34.614
56.48	74.4233
56.7	6.50464
56.92	1.44674
57.14	3.06777
57.36	24.3421
57.58	13.5851
57.8	3.11382
58.02	28.6736
58.24	17.5476
58.46	22.4144
58.68	20.1863
58.9	19.5694
59.12	3.80743
59.34	4.82397
59.56	18.3913
59.78	22.4334
60	29.7078
60.22	11.1705
60.44	16.0288
60.66	4.82133
60.88	17.2427
61.1	7.89557
61.32	15.3549
61.54	12.7053
61.76	6.18447
61.98	24.6057
62.2	11.8841
62.42	10.8321
62.64	30.6586
62.86	3.29249
63.08	8.40468
63.3	17.4566
63.52	27.8346
63.74	14.738
63.96	24.6913
64.18	32.5071
64.4	4.4487
64.62	23.0846
64.84	11.4453
65.06	15.5625
65.28	20.5644
65.5	9.85571
65.72	14.2053
65.94	2.36533
66.16	21.7167
66.38	10.7777
66.6	10.0595
66.82	21.5885
67.04	2.1175
67.26	20.6265
67.48	17.4805
67.7	7.36654
67.92	10.6461
68.14	13.4607
68.36	14.4663
68.58	19.3039
68.8	0.809593
69.02	14.126
69.24	12.9592
69.46	27.3632
69.68	34.1017
69.9	8.33565
70.12	8.98921
70.34	4.8475
70.56	7.48843
70.78	18.9288
71	9.75275
71.22	8.56175
71.44	11.568
71.66	15.7601
71.88	16.181
72.1	31.5512
72.32	24.7168
72.54	16.62
72.76	17.4015
72.98	6.86264
73.2	1.6488
73.42	3.89787
73.64	23.0046
73.86	4.66505
74.08	7.19405
74.3	15.838
74.52	16.8908
74.74	1.76523
74.96	21.4955
75.18	17.7491
75.4	26.019
75.62	0.81073
75.84	1.0233
76.06	19.1391
76.28	10.4369
76.5	28.0201
76.72	21.1199
76.94	14.3639
77.16	6.67315
77.38	15.6789
77.6	6.52463
77.82	18.9911
78.04	32.0334
78.26	4.04882
78.48	3.90015
78.7	25.1424
78.92	18.1925
79.14	14.9187
79.36	10.9459
79.58	7.11511
79.8	17.8469
80.02	23.1851
80.24	10.869
80.46	9.06273
80.68	20.3192
80.9	5.24216
81.12	14.2591
81.34	30.4065
81.56	2.74739
81.78	18.0276
82	4.68071
82.22	12.7338
82.44	7.98118
82.66	16.7555
82.88	10.8667
83.1	11.1367
83.32	23.0702
83.54	14.591
83.76	18.3628
83.98	6.42012
84.2	5.99611
84.42	18.4655
84.64	4.45638
84.86	29.4849
85.08	0.798641
85.3	4.24587
85.52	5.57931
85.74	11.1937
85.96	8.49112
86.18	8.63503
86.4	18.9153
86.62	14.0883
86.84	11.194
87.06	18.4575
87.28	2.70409
87.5	11.5645
87.72	22.9067
87.94	2.99736
88.16	9.7737
88.38	18.7977
88.6	7.45436
88.82	12.1183
89.04	3.551
89.26	28.1232
89.48	9.88696
89.7	12.3343
89.92	6.33116
