Measurement: Powder, Xray Data XY Processed
Mineral: Paralaurionite
Rruff sample: R050271
Ideal chemistry: Pb^2+^Cl(OH)
Locality: Tiger, Pinal County, Arizona, USA
Source: Marcus Origlieri
Description: Greenish-yellow prismatic crystal
Diffraction sample description: Powder
Measured chemistry: (Pb_0.96_[box]_0.04_)Cl(OH)
Cell parameters: a: 10.8616(6) b: 4.0063(3) c: 7.2356(4) alpha: 90 beta: 117.208(6) gamma: 90 volume: 280.01(3) crystal system: monoclinic
x	intensity
5	0
5.22	12.1084
5.44	10.9842
5.66	10.6511
5.88	9.80321
6.1	2.9247
6.32	7.40679
6.54	4.75479
6.76	7.02791
6.98	1.43637
7.2	0.999774
7.42	1.55885
7.64	12.3019
7.86	8.87318
8.08	7.23245
8.3	13.7332
8.52	12.9333
8.74	2.30991
8.96	10.4104
9.18	3.60992
9.4	4.74112
9.62	8.76106
9.84	4.56545
10.06	5.78963
10.28	0.275707
10.5	6.67755
10.72	5.53046
10.94	3.45303
11.16	4.41734
11.38	3.09813
11.6	3.16601
11.82	4.33976
12.04	5.36745
12.26	1.29883
12.48	3.31697
12.7	5.3507
12.92	5.38124
13.14	11.4571
13.36	8.42484
13.58	5.60399
13.8	7.80685
14.02	3.69738
14.24	5.01153
14.46	4.8099
14.68	5.87016
14.9	7.58214
15.12	3.52528
15.34	1.88773
15.56	10.6546
15.78	8.15824
16	1.50048
16.22	9.661
16.44	1.10195
16.66	11.8335
16.88	6.46159
17.1	45.8263
17.32	59.4034
17.54	9.0206
17.76	17.2294
17.98	4.27026
18.2	9.48926
18.42	133.893
18.64	11.8048
18.86	10.97
19.08	7.71174
19.3	7.04078
19.52	14.4465
19.74	8.61829
19.96	0.316452
20.18	7.55685
20.4	6.94071
20.62	9.94459
20.84	4.59366
21.06	2.25434
21.28	3.142
21.5	9.20201
21.72	5.37506
21.94	5.07566
22.16	1.11679
22.38	4.13597
22.6	9.0967
22.82	0.527984
23.04	6.19959
23.26	1.80444
23.48	7.63935
23.7	1.46483
23.92	12.5659
24.14	31.9697
24.36	9.5035
24.58	8.85696
24.8	8.99942
25.02	7.60975
25.24	26.9141
25.46	61.6739
25.68	157.296
25.9	20.3603
26.12	8.36837
26.34	3.37569
26.56	1.75189
26.78	1.22909
27	14.3039
27.22	7.47578
27.44	14.6699
27.66	104.693
27.88	66.9608
28.1	11.2544
28.32	15.6289
28.54	4.58878
28.76	4.00832
28.98	2.42377
29.2	3.97715
29.42	7.39167
29.64	10.8454
29.86	190.141
30.08	52.4043
30.3	15.9172
30.52	3.60031
30.74	11.9351
30.96	12.1503
31.18	5.28515
31.4	9.65648
31.62	2.50289
31.84	1.67623
32.06	1.28699
32.28	23.1419
32.5	4.08777
32.72	12.7271
32.94	14.3528
33.16	137.81
33.38	17.1468
33.6	10.0722
33.82	1.71215
34.04	8.26767
34.26	7.41011
34.48	0.00665
34.7	2.38819
34.92	8.56451
35.14	2.7258
35.36	0.966074
35.58	12.6153
35.8	157.75
36.02	7.39387
36.24	4.59172
36.46	7.47168
36.68	91.7971
36.9	39.9325
37.12	7.115
37.34	60.589
37.56	8.99402
37.78	2.32591
38	7.5771
38.22	9.47125
38.44	0.207216
38.66	0.739509
38.88	1.47464
39.1	14.4959
39.32	6.86813
39.54	12.2559
39.76	1.03191
39.98	6.70945
40.2	47.1363
40.42	17.6396
40.64	15.3722
40.86	4.17207
41.08	7.49442
41.3	1.40862
41.52	13.7471
41.74	30.9281
41.96	14.2872
42.18	3.88532
42.4	4.11178
42.62	2.39267
42.84	3.72923
43.06	10.8948
43.28	12.1111
43.5	3.07244
43.72	6.79063
43.94	2.49175
44.16	0.301655
44.38	0.167724
44.6	9.7103
44.82	16.6437
45.04	78.7152
45.26	75.5198
45.48	21.9651
45.7	17.8907
45.92	22.3081
46.14	8.51469
46.36	10.7491
46.58	4.67609
46.8	3.55611
47.02	6.28374
47.24	12.9508
47.46	8.23246
47.68	8.12722
47.9	3.36533
48.12	35.0001
48.34	14.6971
48.56	1.17815
48.78	16.3624
49	14.2864
49.22	17.4795
49.44	6.77404
49.66	2.10431
49.88	4.35471
50.1	1.94286
50.32	8.1378
50.54	9.00644
50.76	14.4107
50.98	26.039
51.2	3.42877
51.42	6.13764
51.64	0.297591
51.86	7.08453
52.08	8.4258
52.3	11.9115
52.52	28.958
52.74	22.3369
52.96	54.941
53.18	14.516
53.4	7.53114
53.62	14.8254
53.84	54.2834
54.06	43.0665
54.28	20.8249
54.5	16.9744
54.72	7.52532
54.94	13.1593
55.16	6.01107
55.38	5.00861
55.6	11.2033
55.82	47.3395
56.04	17.4067
56.26	0.550538
56.48	10.2598
56.7	7.0351
56.92	13.4044
57.14	26.5233
57.36	43.2384
57.58	10.0327
57.8	2.09699
58.02	2.48395
58.24	12.537
58.46	8.71936
58.68	1.35548
58.9	2.46431
59.12	8.38101
59.34	6.76391
59.56	6.34359
59.78	11.3029
60	36.1411
60.22	9.33089
60.44	3.62824
60.66	16.8909
60.88	1.50117
61.1	9.80441
61.32	6.18071
61.54	3.57929
61.76	5.82955
61.98	0.022043
62.2	7.91214
62.42	1.77634
62.64	6.79646
62.86	11.5625
63.08	21.665
63.3	11.2934
63.52	12.1247
63.74	2.88991
63.96	1.68131
64.18	0.773599
64.4	4.44088
64.62	13.2099
64.84	4.88223
65.06	8.43007
65.28	11.7753
65.5	10.0539
65.72	14.7014
65.94	6.59739
66.16	6.60029
66.38	9.61194
66.6	11.6172
66.82	1.822
67.04	13.3209
67.26	3.74845
67.48	8.26641
67.7	0.244625
67.92	7.52524
68.14	9.76304
68.36	9.97628
68.58	1.90658
68.8	0.990581
69.02	2.56041
69.24	4.32785
69.46	10.0406
69.68	9.83658
69.9	5.42304
70.12	3.14358
70.34	5.64606
70.56	2.74296
70.78	20.7842
71	8.66501
71.22	2.95003
71.44	6.43057
71.66	7.49812
71.88	12.618
72.1	18.9274
72.32	14.0613
72.54	13.176
72.76	5.2147
72.98	12.0488
73.2	7.11344
73.42	10.1947
73.64	15.699
73.86	13.6647
74.08	8.98483
74.3	10.126
74.52	9.98991
74.74	3.10947
74.96	5.0471
75.18	0.253905
75.4	11.1549
75.62	6.09818
75.84	16.3299
76.06	5.50325
76.28	1.09704
76.5	3.72957
76.72	0.764022
76.94	0.393358
77.16	0.451878
77.38	13.438
77.6	5.22287
77.82	11.3096
78.04	2.71583
78.26	13.7007
78.48	0.040831
78.7	17.4953
78.92	9.8865
79.14	2.07889
79.36	1.57419
79.58	0.720969
79.8	2.92486
80.02	10.1389
80.24	5.13229
80.46	4.81962
80.68	10.5772
80.9	1.43307
81.12	6.95937
81.34	7.39726
81.56	8.55634
81.78	8.50139
82	15.3001
82.22	4.08552
82.44	4.1508
82.66	5.89235
82.88	5.63992
83.1	5.46635
83.32	5.46092
83.54	1.3462
83.76	13.2467
83.98	4.67391
84.2	9.70368
84.42	0.347908
84.64	15.9256
84.86	6.03497
85.08	6.33566
85.3	1.76
85.52	0.014889
85.74	4.08092
85.96	9.29531
86.18	8.6727
86.4	7.75921
86.62	15.1405
86.84	15.3156
87.06	16.1745
87.28	3.32884
87.5	9.39603
87.72	8.60799
87.94	6.75807
88.16	6.87088
88.38	2.74332
88.6	8.25604
88.82	6.01812
89.04	15.1134
89.26	11.6198
89.48	4.3921
89.7	4.45889
89.92	6.72916
