Measurement: Powder, Xray Data XY Processed
Mineral: Pargasite
Rruff sample: R050321
Ideal chemistry: NaCa_2_(Mg_4_Al)(Si_6_Al_2_)O_22_(OH)_2_
Locality: Soper River, near Kimmirut, Baffin Island, Nunavut, Canada
Source: Frank Hawthorne
Description: Greenish brown transparent fragment
Diffraction sample description: Powder
Measured chemistry: (Na_0.77_K_0.23_)(Ca_1.90_Na_0.10_)_=2_Mg_4.00_(Al_0.58_Fe^3+^_0.07_Ti_0.05_Mg_0.30_)(Si_6.24_Al_1.76_)_=8_O_22_((OH)_0.69_F_0.31_)_2_
Cell parameters: a: 9.8745(2) b: 17.9553(6) c: 5.2922(3) alpha: 90. beta: 105.270(4) gamma: 90. volume: 905.18(6) crystal system: monoclinic
x	intensity
5	0
5.22	10.2709
5.44	1.34382
5.66	8.00645
5.88	13.2416
6.1	8.75182
6.32	3.53491
6.54	11.1572
6.76	14.0895
6.98	9.10229
7.2	2.90277
7.42	11.7097
7.64	6.55911
7.86	10.2945
8.08	9.09838
8.3	11.5521
8.52	5.80695
8.74	5.02746
8.96	7.55338
9.18	8.48226
9.4	6.01598
9.62	9.95511
9.84	61.0297
10.06	7.21248
10.28	10.3256
10.5	260.494
10.72	8.73892
10.94	0.654449
11.16	13.7475
11.38	7.83548
11.6	5.31422
11.82	3.64379
12.04	3.92516
12.26	6.08046
12.48	2.89408
12.7	10.0297
12.92	1.77301
13.14	9.57877
13.36	3.4465
13.58	6.2836
13.8	3.00434
14.02	4.83344
14.24	1.72427
14.46	16.1672
14.68	9.23317
14.9	7.32797
15.12	7.54273
15.34	7.67204
15.56	7.9994
15.78	3.96928
16	4.99731
16.22	5.20056
16.44	5.15991
16.66	13.1435
16.88	6.80185
17.1	5.63139
17.32	3.48025
17.54	20.6038
17.76	2.5229
17.98	12.3875
18.2	5.40921
18.42	3.68759
18.64	13.4017
18.86	9.41283
19.08	7.447
19.3	9.48902
19.52	9.66152
19.74	17.879
19.96	2.69719
20.18	7.74867
20.4	12.7958
20.62	3.62358
20.84	1.62011
21.06	15.9201
21.28	3.83132
21.5	1.59231
21.72	8.37987
21.94	6.19538
22.16	8.97184
22.38	31.8982
22.6	8.82692
22.82	13.5378
23.04	18.2612
23.26	3.67469
23.48	2.93724
23.7	0.944603
23.92	2.64576
24.14	4.6728
24.36	6.78497
24.58	4.41645
24.8	8.28217
25.02	0.15169
25.24	13.8498
25.46	3.46984
25.68	6.96903
25.9	10.9202
26.12	2.47582
26.34	14.4554
26.56	72.9389
26.78	1.91415
27	4.97992
27.22	44.6796
27.44	26.3867
27.66	6.33365
27.88	12.6745
28.1	3.63322
28.32	1.22096
28.54	492.728
28.76	30.0972
28.98	10.5894
29.2	4.31334
29.42	9.23057
29.64	3.31785
29.86	2.6278
30.08	7.3752
30.3	8.66862
30.52	159.844
30.74	3.75582
30.96	10.5436
31.18	1.62262
31.4	5.14479
31.62	5.99611
31.84	21.9096
32.06	12.8299
32.28	0.306242
32.5	8.18182
32.72	64.9595
32.94	7.57333
33.16	37.7663
33.38	48.3769
33.6	8.28984
33.82	0.572677
34.04	10.9327
34.26	1.21391
34.48	2.49199
34.7	55.9608
34.92	22.16
35.14	29.6952
35.36	81.7907
35.58	12.8268
35.8	5.77048
36.02	3.9302
36.24	3.95552
36.46	0.192291
36.68	15.6336
36.9	3.70862
37.12	0.045279
37.34	19.5902
37.56	4.77187
37.78	35.1151
38	14.1052
38.22	10.7379
38.44	136.496
38.66	52.025
38.88	10.4781
39.1	0.759928
39.32	88.1787
39.54	14.561
39.76	0.942869
39.98	1.52876
40.2	15.2139
40.42	2.33011
40.64	9.78942
40.86	13.996
41.08	5.71526
41.3	1.18203
41.52	6.75459
41.74	2.08265
41.96	134.274
42.18	14.408
42.4	9.06223
42.62	0.587623
42.84	2.11311
43.06	1.08025
43.28	4.76133
43.5	4.44589
43.72	0.046177
43.94	2.63219
44.16	11.0758
44.38	15.6146
44.6	29.1883
44.82	19.4627
45.04	33.5147
45.26	21.154
45.48	11.0468
45.7	7.44594
45.92	1.8452
46.14	0.911359
46.36	6.51166
46.58	9.93636
46.8	13.1659
47.02	10.1103
47.24	4.95194
47.46	10.4814
47.68	5.32835
47.9	12.2068
48.12	28.7365
48.34	4.25359
48.56	7.9305
48.78	9.85388
49	16.6975
49.22	10.7325
49.44	12.0847
49.66	13.3359
49.88	10.8217
50.1	2.0953
50.32	8.61411
50.54	5.4326
50.76	2.7567
50.98	22.433
51.2	1.55902
51.42	1.85996
51.64	5.07869
51.86	13.1607
52.08	9.2865
52.3	2.31605
52.52	1.63307
52.74	5.50046
52.96	8.20963
53.18	14.4579
53.4	2.38064
53.62	3.66312
53.84	7.14796
54.06	2.2776
54.28	6.43385
54.5	20.7648
54.72	14.6204
54.94	11.3707
55.16	6.35358
55.38	5.1084
55.6	2.27845
55.82	20.3991
56.04	38.351
56.26	16.1941
56.48	8.68253
56.7	0.586746
56.92	12.1987
57.14	9.01559
57.36	19.833
57.58	8.70094
57.8	2.93231
58.02	10.7357
58.24	8.65469
58.46	32.5408
58.68	6.53661
58.9	4.54541
59.12	6.328
59.34	0.485696
59.56	7.49542
59.78	9.99501
60	9.89306
60.22	11.1155
60.44	2.26616
60.66	10.103
60.88	9.19467
61.1	10.2206
61.32	19.3521
61.54	12.4258
61.76	0.219716
61.98	150.309
62.2	12.8895
62.42	1.9219
62.64	6.97664
62.86	1.07896
63.08	1.84283
63.3	3.02764
63.52	16.9651
63.74	4.80389
63.96	2.62396
64.18	7.0566
64.4	7.92047
64.62	45.2745
64.84	62.5249
65.06	20.6976
65.28	7.98128
65.5	6.09872
65.72	15.4428
65.94	5.75504
66.16	1.29066
66.38	9.72909
66.6	14.8562
66.82	6.45221
67.04	0.344403
67.26	4.31096
67.48	9.18444
67.7	6.12748
67.92	1.8723
68.14	4.07665
68.36	10.0943
68.58	0.268098
68.8	5.86975
69.02	93.0547
69.24	29.5465
69.46	1.52138
69.68	1.38699
69.9	7.27297
70.12	3.15847
70.34	0.261978
70.56	18.4623
70.78	14.3007
71	9.0959
71.22	10.7498
71.44	4.73476
71.66	3.57091
71.88	32.9912
72.1	9.0053
72.32	2.05349
72.54	4.2832
72.76	3.23451
72.98	5.26293
73.2	6.38596
73.42	14.5301
73.64	2.84727
73.86	2.86802
74.08	1.12846
74.3	10.1082
74.52	10.5245
74.74	10.7699
74.96	6.00248
75.18	8.32719
75.4	6.48288
75.62	5.8228
75.84	11.0371
76.06	5.24543
76.28	1.41911
76.5	3.26496
76.72	14.3099
76.94	9.0815
77.16	1.08208
77.38	2.65242
77.6	3.51629
77.82	5.38486
78.04	5.31672
78.26	0.122213
78.48	2.95838
78.7	3.138
78.92	7.05803
79.14	1.03079
79.36	6.06755
79.58	7.1494
79.8	11.2703
80.02	13.4149
80.24	12.5141
80.46	3.63546
80.68	10.6301
80.9	4.64605
81.12	5.58023
81.34	0.643309
81.56	2.72226
81.78	3.75321
82	4.95353
82.22	2.94461
82.44	7.85271
82.66	9.86616
82.88	0.945322
83.1	2.03372
83.32	3.08053
83.54	0.212811
83.76	6.19836
83.98	9.26792
84.2	3.44557
84.42	9.28824
84.64	8.44623
84.86	14.7407
85.08	6.74289
85.3	3.59104
85.52	2.52765
85.74	4.35149
85.96	1.32805
86.18	4.39695
86.4	6.31558
86.62	2.31005
86.84	6.37628
87.06	6.4261
87.28	6.36316
87.5	5.33661
87.72	10.4075
87.94	7.51675
88.16	6.64794
88.38	5.84107
88.6	4.87704
88.82	5.96816
89.04	4.01856
89.26	6.92427
89.48	0.004441
89.7	0.923321
89.92	6.29725
