Measurement: Powder, Xray Data XY Processed
Mineral: Parisite-(Ce)
Rruff sample: R050308
Ideal chemistry: CaCe_2_(CO_3_)_3_F_2_
Locality: Muzo, Bogota, Colombia
Source: Eugene Schlepp
Description: Green hexagonal prism
Diffraction sample description: Powder
Measured chemistry: Ca_1.00_(Ce_1.03_La_0.49_Nd_0.42_Y_0.06_)_Σ=2_(CO_3_)_3_F_2.00_ ; = lighter phase. Ca_1.00_(Ce_0.96_La_0.51_Nd_0.48_Y_0.05_)_Σ=2_(CO_3_)_3_(F_1.82_(OH)_0.18_)_Σ=2_ = darker phase
Cell parameters: a: 7.1059(2) b: 7.1059(2) c: 83.829(5) alpha: 90 beta: 90 gamma: 120 volume: 3665.8(0) crystal system: hexagonal
x	intensity
5	0
5.22	0.683198
5.44	19.2702
5.66	22.9145
5.88	12.6517
6.1	14.7876
6.32	64.7358
6.54	8.40281
6.76	2.26927
6.98	7.88212
7.2	13.5652
7.42	16.4073
7.64	1.27937
7.86	6.31026
8.08	4.93278
8.3	8.3568
8.52	0.234535
8.74	4.99264
8.96	6.62454
9.18	3.23654
9.4	3.19503
9.62	19.0348
9.84	6.62561
10.06	9.11095
10.28	11.1752
10.5	1.11305
10.72	0.496575
10.94	8.46518
11.16	1.56113
11.38	11.8101
11.6	0.864054
11.82	8.93395
12.04	14.1734
12.26	1.46391
12.48	10.6479
12.7	20.4584
12.92	1.66573
13.14	0.544381
13.36	0.711473
13.58	14.8427
13.8	6.852
14.02	5.19713
14.24	1.31822
14.46	1.36059
14.68	2.43808
14.9	13.7648
15.12	1.69237
15.34	7.26542
15.56	5.33192
15.78	0.512221
16	2.57225
16.22	3.77776
16.44	4.74213
16.66	3.78332
16.88	6.05736
17.1	3.99955
17.32	4.78838
17.54	4.31985
17.76	8.2172
17.98	2.00565
18.2	1.79934
18.42	5.86838
18.64	8.75662
18.86	11.7366
19.08	87.5972
19.3	4.44531
19.52	7.49956
19.74	4.45905
19.96	0.422945
20.18	5.81385
20.4	9.15003
20.62	2.1073
20.84	5.63109
21.06	0.270667
21.28	4.84364
21.5	3.09595
21.72	12.2694
21.94	2.57245
22.16	1.18018
22.38	8.55289
22.6	5.67607
22.82	11.5216
23.04	3.45554
23.26	7.00578
23.48	3.76548
23.7	5.2234
23.92	3.67729
24.14	0.986832
24.36	5.1484
24.58	1.2596
24.8	0.516161
25.02	119.946
25.24	40.6611
25.46	3.82946
25.68	6.60991
25.9	17.4621
26.12	2.65162
26.34	1.04403
26.56	4.24526
26.78	2.4548
27	6.70251
27.22	3.01663
27.44	1.21498
27.66	5.82409
27.88	0.919876
28.1	9.30882
28.32	14.782
28.54	15.0355
28.76	6.99113
28.98	5.16314
29.2	3.68957
29.42	5.87463
29.64	15.7141
29.86	23.3872
30.08	10.8052
30.3	5.3855
30.52	8.77624
30.74	6.25866
30.96	3.00113
31.18	0.197142
31.4	9.65466
31.62	135.475
31.84	70.6217
32.06	9.24043
32.28	8.33658
32.5	5.96983
32.72	5.33055
32.94	7.75046
33.16	5.18113
33.38	2.71501
33.6	0.895016
33.82	10.59
34.04	4.76531
34.26	4.66236
34.48	6.41216
34.7	2.73372
34.92	7.62788
35.14	6.69585
35.36	5
35.58	4.10005
35.8	6.03313
36.02	3.19738
36.24	6.1326
36.46	8.26365
36.68	7.27003
36.9	9.10221
37.12	6.81476
37.34	4.74559
37.56	4.55418
37.78	5.05765
38	5.92806
38.22	6.72739
38.44	5.32292
38.66	23.8941
38.88	14.4354
39.1	3.12495
39.32	4.09535
39.54	2.73857
39.76	9.58325
39.98	10.4808
40.2	8.42724
40.42	5.28353
40.64	4.19441
40.86	7.52524
41.08	14.7654
41.3	5.7698
41.52	0.192506
41.74	6.22335
41.96	10.3649
42.18	8.63833
42.4	0.352291
42.62	8.46179
42.84	0.124277
43.06	2.6045
43.28	5.14282
43.5	3.6696
43.72	5.3192
43.94	9.61839
44.16	193.699
44.38	20.689
44.6	12.8577
44.82	8.77395
45.04	5.91439
45.26	8.98531
45.48	2.96663
45.7	7.06144
45.92	6.99689
46.14	18.5435
46.36	6.51304
46.58	90.2672
46.8	48.1075
47.02	5.79479
47.24	3.58352
47.46	13.586
47.68	8.61754
47.9	3.70734
48.12	13.1386
48.34	18.4788
48.56	84.3653
48.78	13.6925
49	7.10676
49.22	4.21751
49.44	3.38745
49.66	3.52513
49.88	3.9462
50.1	7.20779
50.32	3.22816
50.54	2.80265
50.76	4.71662
50.98	9.90762
51.2	0.628481
51.42	63.248
51.64	12.1635
51.86	2.56002
52.08	3.66838
52.3	3.52126
52.52	0.638236
52.74	2.08326
52.96	5.83723
53.18	12.0546
53.4	6.92193
53.62	3.17686
53.84	8.348
54.06	4.40914
54.28	11.0868
54.5	9.08079
54.72	4.91365
54.94	3.01992
55.16	16.8456
55.38	56.6019
55.6	24.7853
55.82	8.90667
56.04	1.1732
56.26	7.26123
56.48	4.80136
56.7	2.20757
56.92	1.32032
57.14	5.45989
57.36	4.4243
57.58	6.28202
57.8	7.11294
58.02	7.82991
58.24	4.77197
58.46	0.410992
58.68	16.2988
58.9	5.65238
59.12	14.4158
59.34	4.3705
59.56	11.4397
59.78	13.4989
60	24.7987
60.22	19.013
60.44	10.596
60.66	8.55167
60.88	6.80736
61.1	2.99789
61.32	5.5354
61.54	7.88501
61.76	12.1827
61.98	7.14355
62.2	9.22282
62.42	6.08416
62.64	2.12697
62.86	12.0251
63.08	1.04803
63.3	3.08773
63.52	2.01612
63.74	12.8476
63.96	7.7386
64.18	0.435678
64.4	5.34887
64.62	2.12237
64.84	4.75236
65.06	6.53424
65.28	1.02946
65.5	13.7937
65.72	16.7713
65.94	8.82331
66.16	19.6452
66.38	18.6617
66.6	8.91433
66.82	3.38327
67.04	1.57949
67.26	1.81139
67.48	3.16841
67.7	8.34655
67.92	3.8788
68.14	6.79714
68.36	9.73596
68.58	4.92496
68.8	5.47946
69.02	6.00648
69.24	4.68639
69.46	3.4414
69.68	0.147762
69.9	5.75907
70.12	13.5506
70.34	14.3643
70.56	10.0877
70.78	4.91773
71	3.18291
71.22	7.24733
71.44	2.23767
71.66	4.28323
71.88	0.636674
72.1	6.38843
72.32	0.377799
72.54	7.36787
72.76	3.0866
72.98	15.3989
73.2	6.24091
73.42	33.914
73.64	19.9747
73.86	5.35238
74.08	2.57853
74.3	10.6933
74.52	1.08668
74.74	9.2704
74.96	4.54707
75.18	6.65235
75.4	1.63198
75.62	2.72092
75.84	7.85503
76.06	11.8411
76.28	8.49005
76.5	4.80203
76.72	3.86725
76.94	17.5938
77.16	7.87044
77.38	9.74543
77.6	1.60453
77.82	3.30555
78.04	1.1929
78.26	2.96266
78.48	8.07157
78.7	5.22932
78.92	0.850029
79.14	5.72512
79.36	7.0452
79.58	6.72178
79.8	3.87805
80.02	2.89423
80.24	5.88239
80.46	4.96102
80.68	3.11292
80.9	10.2894
81.12	10.0868
81.34	7.87948
81.56	11.5924
81.78	5.00847
82	4.51278
82.22	7.20007
82.44	8.93845
82.66	14.9559
82.88	21.8161
83.1	23.3893
83.32	15.1278
83.54	2.0104
83.76	5.51444
83.98	6.35416
84.2	1.67429
84.42	10.0327
84.64	15.5195
84.86	1.17979
85.08	3.25971
85.3	6.70992
85.52	4.16711
85.74	4.52104
85.96	6.0016
86.18	8.02405
86.4	9.78515
86.62	6.83144
86.84	7.88615
87.06	4.85442
87.28	2.20267
87.5	2.53332
87.72	6.42901
87.94	8.6201
88.16	12.8006
88.38	5.59816
88.6	12.4473
88.82	8.44204
89.04	2.67018
89.26	10.0005
89.48	8.29497
89.7	11.6699
89.92	8.54062
