Measurement: Powder, Xray Data XY Processed
Mineral: Pectolite
Rruff sample: R050396
Ideal chemistry: NaCa_2_Si_3_O_8_(OH)
Locality: Jeffrey Quarry, Asbestos, Quebec, Canada
Source: Marcus Origlieri
Description: Colorless to gray columnar blocky crystals
Diffraction sample description: Powder
Measured chemistry: Na_1.00_Ca_2.00_Si_3.00_O_8_(OH)
Cell parameters: a: 7.9897(2) b: 7.042(1) c: 7.02417(10) alpha: 90.472(9) beta: 95.184(2) gamma: 102.492(6) volume: 384.15(8) crystal system: triclinic
x	intensity
5	0
5.22	8.93343
5.44	11.8092
5.66	3.45897
5.88	15.5029
6.1	6.77631
6.32	13.0739
6.54	8.29384
6.76	6.20556
6.98	13.8864
7.2	3.82526
7.42	0.416771
7.64	0.39059
7.86	2.34393
8.08	9.9491
8.3	5.72193
8.52	9.18499
8.74	7.81392
8.96	6.4768
9.18	3.38542
9.4	5.55842
9.62	6.69629
9.84	2.90813
10.06	4.31082
10.28	5.1672
10.5	4.21891
10.72	6.15988
10.94	7.40727
11.16	7.33512
11.38	20.1077
11.6	6.0542
11.82	6.94536
12.04	2.76922
12.26	7.78876
12.48	4.37569
12.7	40.5122
12.92	4.60667
13.14	8.55936
13.36	5.55907
13.58	0.588339
13.8	3.7203
14.02	1.01725
14.24	5.14809
14.46	0.646018
14.68	10.3182
14.9	0.520563
15.12	3.48902
15.34	3.60852
15.56	2.06018
15.78	6.04366
16	4.18676
16.22	15.3808
16.44	13.4205
16.66	7.96193
16.88	7.12398
17.1	6.22508
17.32	1.48295
17.54	3.54612
17.76	6.54345
17.98	9.22439
18.2	7.17099
18.42	0.859775
18.64	7.04751
18.86	11.1184
19.08	3.69325
19.3	3.63995
19.52	5.70417
19.74	1.55579
19.96	3.74675
20.18	5.11561
20.4	5.23187
20.62	5.26758
20.84	2.46053
21.06	2.334
21.28	4.26616
21.5	2.37394
21.72	1.22559
21.94	3.05432
22.16	14.1498
22.38	10.8986
22.6	0.415486
22.82	9.35456
23.04	24.1896
23.26	5.00496
23.48	7.94032
23.7	9.03202
23.92	6.25197
24.14	4.13136
24.36	4.01136
24.58	5.64415
24.8	2.89251
25.02	1.64137
25.24	3.1905
25.46	70.1163
25.68	15.9239
25.9	4.40579
26.12	20.6949
26.34	1.83749
26.56	1.34265
26.78	8.32699
27	171.382
27.22	18.3866
27.44	25.9564
27.66	1.55699
27.88	1.01992
28.1	1.64334
28.32	74.4413
28.54	10.4341
28.76	20.068
28.98	246.68
29.2	49.3989
29.42	3.10928
29.64	10.4976
29.86	9.92155
30.08	4.26173
30.3	0.193137
30.52	48.5389
30.74	171.137
30.96	66.5524
31.18	14.2393
31.4	3.71966
31.62	3.13681
31.84	0.490054
32.06	1.81738
32.28	8.41042
32.5	12.9439
32.72	24.2099
32.94	33.2061
33.16	5.20581
33.38	6.13765
33.6	4.24761
33.82	7.18429
34.04	0.179597
34.26	15.6014
34.48	10.5732
34.7	70.5494
34.92	6.27498
35.14	9.21773
35.36	11.0167
35.58	7.04613
35.8	1.03161
36.02	7.00183
36.24	10.9439
36.46	5.14235
36.68	3.96291
36.9	7.55785
37.12	16.2245
37.34	19.2647
37.56	1.99698
37.78	3.91961
38	6.79059
38.22	8.66219
38.44	3.53936
38.66	35.4662
38.88	10.31
39.1	17.8743
39.32	95.1827
39.54	7.11226
39.76	13.0045
39.98	4.14758
40.2	0.185481
40.42	8.16109
40.64	8.24508
40.86	5.38543
41.08	1.47394
41.3	16.7142
41.52	28.2197
41.74	29.0017
41.96	25.4261
42.18	0.673365
42.4	6.76972
42.62	8.02478
42.84	3.45985
43.06	4.62873
43.28	8.73092
43.5	15.6724
43.72	7.4398
43.94	1.14865
44.16	13.5112
44.38	1.12524
44.6	3.88113
44.82	2.63838
45.04	9.46282
45.26	1.35191
45.48	8.2722
45.7	16.0667
45.92	4.22087
46.14	0.345623
46.36	0.267341
46.58	2.10453
46.8	7.13705
47.02	0.588588
47.24	13.1326
47.46	5.93925
47.68	8.5417
47.9	4.47611
48.12	2.59903
48.34	7.0553
48.56	28.9035
48.78	6.00756
49	11.0621
49.22	9.92625
49.44	5.19445
49.66	1.90597
49.88	16.2799
50.1	16.4896
50.32	4.4181
50.54	1.39315
50.76	1.26764
50.98	0.034958
51.2	5.74593
51.42	20.5448
51.64	13.3441
51.86	3.96627
52.08	24.4822
52.3	42.0291
52.52	16.076
52.74	2.17169
52.96	1.30891
53.18	8.92155
53.4	24.8699
53.62	17.1799
53.84	24.4838
54.06	9.73238
54.28	0.982693
54.5	6.04779
54.72	2.26875
54.94	11.598
55.16	7.04122
55.38	2.29957
55.6	18.0166
55.82	4.87834
56.04	7.06965
56.26	4.30109
56.48	9.27285
56.7	2.19042
56.92	6.21533
57.14	7.27106
57.36	4.35635
57.58	12.783
57.8	10.2807
58.02	11.018
58.24	11.448
58.46	0.961638
58.68	0.618475
58.9	9.01483
59.12	8.59799
59.34	6.52579
59.56	9.23021
59.78	9.81308
60	14.0658
60.22	3.36246
60.44	4.76035
60.66	5.37723
60.88	2.07606
61.1	9.6936
61.32	2.02865
61.54	0.690929
61.76	2.56582
61.98	0.683026
62.2	7.69756
62.42	34.5063
62.64	25.3467
62.86	10.9099
63.08	6.68157
63.3	20.3118
63.52	13.3559
63.74	22.5367
63.96	5.66365
64.18	3.70071
64.4	1.96124
64.62	1.67986
64.84	4.92696
65.06	6.50831
65.28	2.77508
65.5	6.01109
65.72	6.25645
65.94	2.01184
66.16	4.07243
66.38	5.93422
66.6	7.88208
66.82	9.91269
67.04	3.62506
67.26	6.03027
67.48	4.56593
67.7	0.284441
67.92	1.24961
68.14	5.9203
68.36	14.6823
68.58	2.66624
68.8	4.78241
69.02	4.85181
69.24	0.949006
69.46	13.1761
69.68	7.68204
69.9	2.0051
70.12	7.28707
70.34	4.60524
70.56	6.22635
70.78	2.6
71	3.77792
71.22	3.8937
71.44	0.809397
71.66	2.94353
71.88	0.746876
72.1	4.54261
72.32	8.31492
72.54	3.98112
72.76	0.817334
72.98	7.26643
73.2	5.17676
73.42	8.21934
73.64	1.2851
73.86	7.3717
74.08	4.29447
74.3	6.46165
74.52	0.163843
74.74	4.21679
74.96	5.59871
75.18	2.73391
75.4	2.86757
75.62	1.00132
75.84	3.98479
76.06	5.8927
76.28	4.87235
76.5	13.9429
76.72	10.9848
76.94	2.72772
77.16	8.56486
77.38	3.68348
77.6	4.83428
77.82	1.84794
78.04	0.797397
78.26	2.85742
78.48	1.00993
78.7	3.09279
78.92	3.12078
79.14	1.13743
79.36	5.41629
79.58	6.24522
79.8	4.97639
80.02	4.81536
80.24	7.72742
80.46	2.66895
80.68	5.51879
80.9	4.30918
81.12	4.15257
81.34	0.085357
81.56	1.7115
81.78	0.333385
82	0.282754
82.22	0.30568
82.44	4.36755
82.66	10.495
82.88	5.61677
83.1	5.71961
83.32	4.8787
83.54	0.860347
83.76	0.975609
83.98	5.02553
84.2	1.081
84.42	5.02968
84.64	5.82109
84.86	3.70246
85.08	1.48381
85.3	0.504139
85.52	13.3642
85.74	2.27267
85.96	6.52684
86.18	1.57647
86.4	3.57725
86.62	5.53601
86.84	1.82507
87.06	0.140247
87.28	2.8915
87.5	2.75273
87.72	0.379127
87.94	14.5469
88.16	6.56087
88.38	6.12863
88.6	13.0462
88.82	14.8352
89.04	10.4568
89.26	3.3035
89.48	3.27561
89.7	0.145701
89.92	2.87567
