Measurement: Powder, Xray Data XY Processed
Mineral: Perite
Rruff sample: R060766
Ideal chemistry: Pb^2+^Bi^3+^O_2_Cl
Locality: Blue Bell mine, San Bernardino, California, USA
Source: Michael Scott
Description: Pale straw-yellow granular, associated with fluorite, hemimorphite, quartz and chlorargyrite
Diffraction sample description: Powder, using Mo radiation
Cell parameters: a: 5.5824(9) b: 5.586(2) c: 12.418(3) alpha: 90 beta: 90 gamma: 90 volume: 387.20(8) crystal system: orthorhombic
x	intensity
5	0
5.18	3.70078
5.36	0.042259
5.54	4.37266
5.72	1.75762
5.9	11.57
6.08	26.6649
6.26	37.4849
6.44	100.663
6.62	123.027
6.8	96.9402
6.98	80.584
7.16	92.9235
7.34	113.381
7.52	124.352
7.7	93.6902
7.88	89.9518
8.06	68.0718
8.24	66.8584
8.42	62.201
8.6	63.6034
8.78	51.7937
8.96	52.7503
9.14	47.6291
9.32	36.793
9.5	24.3115
9.68	25.3
9.86	22.811
10.04	26.0311
10.22	18.9017
10.4	22.5382
10.58	80.6159
10.76	433.706
10.94	522.582
11.12	148.01
11.3	26.4074
11.48	0.993963
11.66	2.12203
11.84	0.496778
12.02	0.554511
12.2	3.65795
12.38	1.57633
12.56	0.817339
12.74	1.37441
12.92	20.8992
13.1	99.6889
13.28	79.8255
13.46	14.7078
13.64	2.96331
13.82	12.1121
14	133.077
14.18	791.178
14.36	1286.1
14.54	924.674
14.72	683.24
14.9	185.306
15.08	41.8543
15.26	15.115
15.44	8.36135
15.62	2.47392
15.8	2.16763
15.98	11.7589
16.16	8.89622
16.34	1.76564
16.52	0.233351
16.7	3.21972
16.88	6.80573
17.06	3.9493
17.24	0.605162
17.42	0.388338
17.6	0.66764
17.78	3.23927
17.96	0.253295
18.14	5.1604
18.32	2.61812
18.5	2.19189
18.68	0.837308
18.86	6.25318
19.04	4.61331
19.22	17.6692
19.4	43.4587
19.58	223.561
19.76	398.818
19.94	200.294
20.12	40.3069
20.3	21.1406
20.48	66.5848
20.66	258.136
20.84	295.55
21.02	94.4081
21.2	17.9974
21.38	11.2509
21.56	14.9241
21.74	40.2004
21.92	34.2465
22.1	6.98598
22.28	0.673617
22.46	0.158682
22.64	1.40284
22.82	0.053424
23	3.27956
23.18	27.462
23.36	136.489
23.54	172.292
23.72	65.726
23.9	15.1789
24.08	10.2352
24.26	29.5236
24.44	102.657
24.62	296.146
24.8	258.687
24.98	171.812
25.16	456.694
25.34	659.834
25.52	341.425
25.7	77.3319
25.88	24.4681
26.06	21.7632
26.24	14.1371
26.42	11.115
26.6	7.56147
26.78	0.866349
26.96	3.71111
27.14	0.39285
27.32	0.841885
27.5	0.222731
27.68	1.6085
27.86	0.02632
28.04	1.14688
28.22	2.57667
28.4	4.58642
28.58	28.4088
28.76	88.88
28.94	76.8854
29.12	30.9799
29.3	65.0507
29.48	101.274
29.66	72.0747
29.84	11.5178
30.02	2.92726
30.2	24.0427
30.38	12.7824
30.56	9.08953
30.74	0.00391
30.92	0.660074
31.1	0.953705
31.28	8.16135
31.46	48.3376
31.64	59.6309
31.82	36.9109
32	6.32286
32.18	25.3778
32.36	56.1037
32.54	57.8331
32.72	112.481
32.9	268.6
33.08	275.284
33.26	155.657
33.44	47.3626
33.62	37.9667
33.8	21.3344
33.98	16.8481
34.16	1.35958
34.34	14.6223
34.52	0.829895
34.7	0.155564
34.88	0.317227
35.06	0.250443
35.24	1.10866
35.42	16.3398
35.6	94.3056
35.78	123.257
35.96	76.5182
36.14	26.3813
36.32	21.4551
36.5	40.535
36.68	23.3924
36.86	8.74433
37.04	5.91823
37.22	0.626364
37.4	0.180479
37.58	3.9226
37.76	16.367
37.94	58.5242
38.12	87.1185
38.3	63.0667
38.48	39.665
38.66	64.1393
38.84	94.4588
39.02	142.602
39.2	167.437
39.38	140.692
39.56	73.4744
39.74	33.0382
39.92	18.0751
40.1	6.99374
40.28	8.99085
40.46	8.24931
40.64	1.1298
40.82	0.174347
41	5.66191
41.18	0.806492
41.36	0.373984
41.54	2.18729
41.72	2.08349
41.9	1.97622
42.08	11.5945
42.26	14.5997
42.44	14.9333
42.62	13.1234
42.8	11.8326
42.98	13.1744
43.16	4.43837
43.34	9.35419
43.52	27.4785
43.7	43.2385
43.88	37.5033
44.06	34.6752
44.24	26.6697
44.42	30.3105
44.6	93.5353
44.78	122.477
44.96	103.293
45.14	64.325
45.32	28.5871
45.5	23.4132
45.68	6.79441
45.86	0.318587
46.04	0.633708
46.22	0.429599
46.4	1.06516
46.58	0.131423
46.76	17.9669
46.94	22.3022
47.12	29.3622
47.3	31.2464
47.48	48.5563
47.66	31.8815
47.84	25.895
48.02	2.47701
48.2	6.55715
48.38	4.41186
48.56	5.09397
48.74	8.58013
48.92	22.0065
49.1	20.1217
49.28	27.3166
49.46	33.0815
49.64	47.3085
49.82	36.7534
50	28.5499
50.18	20.5391
50.36	8.04813
50.54	0.761186
50.72	3.27191
50.9	0.860964
51.08	2.91018
51.26	0.473806
51.44	0.642007
51.62	16.9946
51.8	14.0068
51.98	3.7071
52.16	0.899138
52.34	3.63858
52.52	10.5412
52.7	5.26272
52.88	0.579136
53.06	5.44226
53.24	8.17591
53.42	11.8245
53.6	24.0548
53.78	8.24251
53.96	13.2159
54.14	10.7263
54.32	38.4574
54.5	50.9837
54.68	50.9301
54.86	35.1523
55.04	15.6342
55.22	7.66094
55.4	5.76832
55.58	3.52161
55.76	2.29637
55.94	0.526575
56.12	1.43948
56.3	10.3919
56.48	4.10983
56.66	17.9969
56.84	9.82506
57.02	13.4107
57.2	6.22985
57.38	1.86391
57.56	0.636949
57.74	1.51443
57.92	22.978
58.1	18.7482
58.28	10.864
58.46	12.3669
58.64	35.5336
58.82	55.568
59	41.2246
59.18	44.3287
59.36	40.5634
59.54	10.5477
59.72	14.7092
59.9	17.5739
60.08	3.67772
60.26	3.57402
60.44	12.999
60.62	15.7815
60.8	2.2595
60.98	15.6336
61.16	0.990149
61.34	20.0949
61.52	5.0297
61.7	8.13394
61.88	0.807582
62.06	0.675797
62.24	0.52145
62.42	12.1955
62.6	0.227086
62.78	12.25
62.96	12.6641
63.14	20.8333
63.32	15.1168
63.5	11.0448
63.68	14.9952
63.86	6.9429
64.04	0.440009
64.22	0.262265
64.4	4.644
64.58	2.63225
64.76	2.95946
64.94	9.61727
