Measurement: Powder, Xray Data XY Processed
Mineral: Perroudite
Rruff sample: R060699
Ideal chemistry: Ag^1+^_4_Hg^2+^_5_S^2-^_5_(I^1-^,Br^1-^)_2_Cl_2_
Locality: Copiapo, Chile
Source: Bob Jenkins
Description: Reddish brown thin bladed crystals associated with white cerussite
Diffraction sample description: Single crystal, powder profile is calculated
Cell parameters: a: 17.4203(9) b: 12.2009(7) c: 4.2853(2) alpha: 90 beta: 90 gamma: 90 volume: 910.80(9) crystal system: orthorhombic
x	intensity
5	0
5.22	0
5.44	0
5.66	0
5.88	0
6.1	0
6.32	0
6.54	0
6.76	0
6.98	0
7.2	0
7.42	0
7.64	0
7.86	0
8.08	0
8.3	0
8.52	0
8.74	0.106
8.96	0
9.18	0
9.4	0
9.62	0
9.84	0
10.06	0.029
10.28	0
10.5	0
10.72	0
10.94	0
11.16	0
11.38	0
11.6	0
11.82	0
12.04	0
12.26	0
12.48	11.323
12.7	0
12.92	0
13.14	0
13.36	0
13.58	0
13.8	0
14.02	0
14.24	0
14.46	5.657
14.68	0
14.9	0
15.12	0
15.34	5.294
15.56	0
15.78	0
16	0
16.22	0
16.44	0
16.66	0
16.88	2.793
17.1	0
17.32	0
17.54	0
17.76	4.981
17.98	0
18.2	0
18.42	0
18.64	0
18.86	0
19.08	0
19.3	0
19.52	0
19.74	0
19.96	0
20.18	0
20.4	26.163
20.62	0
20.84	0
21.06	3.679
21.28	0
21.5	0
21.72	0.467
21.94	0
22.16	0.109
22.38	3.164
22.6	0
22.82	0.288
23.04	0
23.26	0
23.48	0
23.7	0
23.92	3.624
24.14	3.133
24.36	0
24.58	0
24.8	0
25.02	0.709
25.24	0.146
25.46	0.065
25.68	23.841
25.9	0
26.12	0
26.34	0
26.56	36.229
26.78	0.721
27	0.002
27.22	7.238
27.44	0
27.66	0
27.88	0
28.1	0
28.32	0
28.54	0
28.76	0
28.98	0.129
29.2	5.866
29.42	5.826
29.64	61.21
29.86	36.773
30.08	8.062
30.3	0
30.52	2.252
30.74	6.227
30.96	9.25
31.18	0
31.4	0
31.62	8.275
31.84	3.172
32.06	0
32.28	0
32.5	31.137
32.72	0.057
32.94	1.015
33.16	7.198
33.38	0
33.6	0.005
33.82	29.026
34.04	0.032
34.26	0.977
34.48	0
34.7	0
34.92	0
35.14	0
35.36	0
35.58	0
35.8	2.949
36.02	0.142
36.24	1.522
36.46	1.085
36.68	2.192
36.9	6.292
37.12	2.321
37.34	3.996
37.56	0.004
37.78	0
38	2.359
38.22	0.151
38.44	0
38.66	0
38.88	0
39.1	3.967
39.32	0.147
39.54	0
39.76	2.336
39.98	0.137
40.2	2.931
40.42	0
40.64	0
40.86	0
41.08	0
41.3	0.01
41.52	4.315
41.74	4.245
41.96	0.882
42.18	12.67
42.4	3.27
42.62	12.834
42.84	0.661
43.06	0.036
43.28	0
43.5	5.73
43.72	4.135
43.94	0
44.16	0.833
44.38	4.134
44.6	1.615
44.82	0.852
45.04	0.599
45.26	8.058
45.48	0.215
45.7	0.098
45.92	0
46.14	0
46.36	0
46.58	1.163
46.8	0.498
47.02	2.001
47.24	12.443
47.46	5.947
47.68	2.004
47.9	0.287
48.12	0.08
48.34	0
48.56	5.994
48.78	0.056
49	1.361
49.22	1.416
49.44	5.933
49.66	0.547
49.88	0.988
50.1	15.142
50.32	0.113
50.54	0.151
50.76	0
50.98	0
51.2	0
51.42	2.817
51.64	1.417
51.86	4.105
52.08	4.558
52.3	0.775
52.52	5.996
52.74	0.855
52.96	0.032
53.18	1.421
53.4	0.56
53.62	0.003
53.84	4.161
54.06	7.842
54.28	0.069
54.5	0.056
54.72	2.751
54.94	8.465
55.16	1.115
55.38	0
55.6	0
55.82	0.069
56.04	1.604
56.26	2.512
56.48	4.929
56.7	6.704
56.92	3.517
57.14	0.165
57.36	0.523
57.58	1.727
57.8	1.33
58.02	0.007
58.24	1.67
58.46	1.651
58.68	0.781
58.9	0.47
59.12	1.005
59.34	0.084
59.56	0
59.78	0
60	0.049
60.22	0.294
60.44	3.3
60.66	1.344
60.88	3.471
61.1	0.566
61.32	0.15
61.54	0.281
61.76	1.125
61.98	0.001
62.2	0.415
62.42	0.204
62.64	0.359
62.86	2.198
63.08	1.592
63.3	0.91
63.52	0.271
63.74	0
63.96	0.058
64.18	1.011
64.4	0.827
64.62	2.245
64.84	2.585
65.06	0.668
65.28	0.172
65.5	0.496
65.72	2.24
65.94	0.926
66.16	0.491
66.38	2.566
66.6	0.756
66.82	0.362
67.04	0.19
67.26	0.084
67.48	0.001
67.7	0
67.92	0.012
68.14	2.821
68.36	2.825
68.58	1.851
68.8	2.087
69.02	2.94
69.24	2.123
69.46	0.181
69.68	0.258
69.9	0.75
70.12	0.761
70.34	0.524
70.56	0.466
70.78	2.13
71	1.065
71.22	0.169
71.44	0.009
71.66	0
71.88	0.117
72.1	0.377
72.32	0.673
72.54	0.668
72.76	0.519
72.98	0.546
73.2	0.354
73.42	0.069
73.64	0.028
73.86	0.079
74.08	0.987
74.3	0.616
74.52	0.646
74.74	2.334
74.96	1.636
75.18	0.295
75.4	0
75.62	0.102
75.84	0.864
76.06	0.555
76.28	0.729
76.5	3.657
76.72	1.633
76.94	1.324
77.16	0.823
77.38	0.181
77.6	0.305
77.82	0.281
78.04	0.64
78.26	1.075
78.48	0.405
78.7	0.005
78.92	0.108
79.14	0.062
79.36	0.109
79.58	0.384
79.8	1.053
80.02	0.645
80.24	2.346
80.46	1.125
80.68	0.218
80.9	0.267
81.12	1.237
81.34	1.328
81.56	0.407
81.78	0.278
82	0.227
82.22	0.208
82.44	0.028
82.66	0.021
82.88	0.058
83.1	0.102
83.32	0.908
83.54	0.649
83.76	0.966
83.98	0.565
84.2	0.751
84.42	0.306
84.64	0.078
84.86	1.696
85.08	0.566
85.3	0.747
85.52	0.89
85.74	0.487
85.96	0.078
86.18	0.022
86.4	0.003
86.62	0.588
86.84	0.276
87.06	0.931
87.28	0.875
87.5	1.364
87.72	1.718
87.94	0.516
88.16	0.486
88.38	0.104
88.6	0.045
88.82	0.26
89.04	1.106
89.26	0.998
89.48	1.152
89.7	0.733
89.92	0.04
