Measurement: Powder, Xray Data XY Processed
Mineral: Petalite
Rruff sample: R040100
Ideal chemistry: LiAlSi_4_O_10_
Locality: Brazil
Source: Bob Downs
Description: Pale purple cut gemstone
Diffraction sample description: Powder
Measured chemistry: Li_1.00_Al_1.00_Si_4.00_O_10_
Cell parameters: a: 11.750(2) b: 5.1395(5) c: 7.625(1) alpha: 90. beta: 113.00(1) gamma: 90. volume: 423.90(7) crystal system: monoclinic
x	intensity
5	0
5.22	11.647
5.44	10.644
5.66	14.816
5.88	11.021
6.1	11.314
6.32	15.658
6.54	21.76
6.76	6.611
6.98	11.95
7.2	6.625
7.42	26.725
7.64	10.665
7.86	2.791
8.08	20.282
8.3	7.436
8.52	11.67
8.74	8.703
8.96	8.137
9.18	13.977
9.4	2.156
9.62	16.554
9.84	14.674
10.06	9.727
10.28	5.707
10.5	15.917
10.72	13.864
10.94	8.514
11.16	14.343
11.38	16.245
11.6	9.024
11.82	5.292
12.04	8.895
12.26	3.189
12.48	1.17
12.7	0.589
12.92	4.496
13.14	13.867
13.36	15.326
13.58	6.487
13.8	9.341
14.02	16.108
14.24	13.329
14.46	11.911
14.68	7.579
14.9	13.62
15.12	8.474
15.34	20.749
15.56	6.379
15.78	16.95
16	0.513
16.22	6.016
16.44	34.67
16.66	15.025
16.88	9.399
17.1	8.369
17.32	6.515
17.54	10.763
17.76	9.295
17.98	4.579
18.2	10.876
18.42	8.748
18.64	13.817
18.86	4.933
19.08	37.934
19.3	10.844
19.52	6.313
19.74	0.673
19.96	10.035
20.18	8.064
20.4	16.331
20.62	7.563
20.84	9.59
21.06	11.949
21.28	18.575
21.5	14.125
21.72	3.801
21.94	5.265
22.16	6.554
22.38	2.478
22.6	5.342
22.82	4.03
23.04	4.415
23.26	0.807
23.48	11.96
23.7	76.787
23.92	869.031
24.14	104.385
24.36	255.365
24.58	40.012
24.8	36.911
25.02	2.615
25.24	20.675
25.46	141.821
25.68	2.263
25.9	1.825
26.12	10.848
26.34	6.065
26.56	3.698
26.78	3.721
27	14.558
27.22	11.69
27.44	5.804
27.66	4.628
27.88	9.392
28.1	0.596
28.32	3.131
28.54	11.473
28.76	21.471
28.98	4.637
29.2	34.323
29.42	22.716
29.64	6.079
29.86	29.739
30.08	36.127
30.3	19.577
30.52	7.988
30.74	4.588
30.96	9.246
31.18	7.885
31.4	10.26
31.62	13.957
31.84	3.436
32.06	6.238
32.28	7.256
32.5	3.49
32.72	6.503
32.94	14.823
33.16	26.727
33.38	13.375
33.6	0.626
33.82	5.187
34.04	6.868
34.26	1.733
34.48	15.617
34.7	6.277
34.92	107.608
35.14	20.498
35.36	40.369
35.58	11.516
35.8	4.011
36.02	1.741
36.24	3.561
36.46	1.523
36.68	3.607
36.9	7.689
37.12	0.303
37.34	9.397
37.56	18.031
37.78	17.177
38	6.512
38.22	6.422
38.44	4.758
38.66	9.053
38.88	8.016
39.1	3.635
39.32	10.865
39.54	11.066
39.76	0.195
39.98	5.085
40.2	19.996
40.42	5.797
40.64	4.668
40.86	9.604
41.08	7.331
41.3	6.385
41.52	2.244
41.74	12.17
41.96	13.771
42.18	14.432
42.4	8.033
42.62	7.867
42.84	7.681
43.06	4.481
43.28	1.32
43.5	4.804
43.72	53.216
43.94	31.457
44.16	28.511
44.38	4.866
44.6	16.43
44.82	4.791
45.04	11.985
45.26	5.351
45.48	14.746
45.7	2.168
45.92	9.412
46.14	5.13
46.36	2.153
46.58	12.592
46.8	16.481
47.02	41.104
47.24	12.097
47.46	3.505
47.68	10.49
47.9	17.589
48.12	31.327
48.34	5.96
48.56	2.206
48.78	10.556
49	5.717
49.22	6.941
49.44	4.947
49.66	12.059
49.88	6.797
50.1	11.082
50.32	6.679
50.54	19.416
50.76	15.959
50.98	0.835
51.2	1.412
51.42	1.018
51.64	9.964
51.86	2.937
52.08	14.981
52.3	8.994
52.52	3.974
52.74	0.998
52.96	36.278
53.18	9.566
53.4	16.109
53.62	20.336
53.84	5.078
54.06	8.83
54.28	3.971
54.5	1.932
54.72	7.002
54.94	2.814
55.16	8.671
55.38	3.454
55.6	10.206
55.82	4.079
56.04	10.183
56.26	38.039
56.48	26.394
56.7	14.507
56.92	2.631
57.14	3.147
57.36	2.552
57.58	9.197
57.8	3.59
58.02	5.063
58.24	10.818
58.46	4.184
58.68	7.42
58.9	7.881
59.12	8.106
59.34	7.234
59.56	17.76
59.78	7.615
60	5.334
60.22	9.002
60.44	12.065
60.66	6.045
60.88	0.031
61.1	5.147
61.32	3.735
61.54	6.471
61.76	9.265
61.98	5.174
62.2	7.046
62.42	8.951
62.64	7.482
62.86	19.181
63.08	6.006
63.3	4.792
63.52	11.419
63.74	4.469
63.96	5.785
64.18	6.803
64.4	20.287
64.62	27.543
64.84	6.37
65.06	0.155
65.28	10.845
65.5	3.821
65.72	9.743
65.94	2.686
66.16	3.719
66.38	7.666
66.6	27.852
66.82	12.416
67.04	3.857
67.26	13.56
67.48	13.587
67.7	4.706
67.92	2.815
68.14	8.063
68.36	7.141
68.58	5.921
68.8	11.007
69.02	10.882
69.24	5.923
69.46	12.688
69.68	4.799
69.9	4.929
70.12	0.065
70.34	6.753
70.56	4.065
70.78	3.173
71	7.337
71.22	5.379
71.44	2.545
71.66	6.346
71.88	6.007
72.1	13.676
72.32	0.852
72.54	6.847
72.76	6.338
72.98	3.237
73.2	4.483
73.42	11.643
73.64	9.607
73.86	10.898
74.08	3.829
74.3	12.878
74.52	6.734
74.74	3.48
74.96	8.296
75.18	4.056
75.4	12.753
75.62	5.834
75.84	9.556
76.06	9.774
76.28	2.334
76.5	19.268
76.72	7.075
76.94	8.144
77.16	1.823
77.38	22.533
77.6	16.491
77.82	7.489
78.04	2.089
78.26	7.927
78.48	5.344
78.7	2.856
78.92	22.253
79.14	15.32
79.36	3.246
79.58	7.413
79.8	6.344
80.02	5.624
80.24	0.813
80.46	8.088
80.68	5.676
80.9	4.914
81.12	4.76
81.34	7.065
81.56	3.374
81.78	1.437
82	1.678
82.22	13.836
82.44	3.349
82.66	5.675
82.88	7.703
83.1	5.377
83.32	8.408
83.54	7.442
83.76	8.262
83.98	6.005
84.2	4.834
84.42	7.677
84.64	5.272
84.86	6.553
85.08	6.305
85.3	4.171
85.52	1.071
85.74	0.746
85.96	11.356
86.18	7.31
86.4	7.257
86.62	5.058
86.84	6.007
87.06	3.253
87.28	8.43
87.5	15.399
87.72	0.28
87.94	5.022
88.16	6.289
88.38	4.664
88.6	8.121
88.82	1.462
89.04	7.021
89.26	8.329
89.48	6.55
89.7	9.132
89.92	6.89
