Measurement: Powder, Xray Data XY Processed
Mineral: Pezzottaite
Rruff sample: R060583
Ideal chemistry: CsLiBe_2_Al_2_Si_6_O_18_
Locality: Ambatovita, Mandrosonoro area, Fianarantsoa Province, Madagascar
Source: Michael Scott
Description: Pink thin tabular hexagonal plate
Diffraction sample description: Powder
Measured chemistry: (Cs_0.74_Na_0.10_Rb_0.03_Ca_0.03_K_0.02_)_Î£0.92_Li_1.08_Be_2_Al_2.05_Si_5.96_O_18_.   BeO and Li_2_O were added.
Cell parameters: a: 15.9636(4) b: 15.9636(4) c: 27.8455(7) alpha: 90 beta: 90 gamma: 120 volume: 6145.4(3) crystal system: hexagonal
x	intensity
5	0
5.22	5.42526
5.44	8.84215
5.66	4.37194
5.88	4.27286
6.1	16.5744
6.32	24.8156
6.54	12.4055
6.76	9.11815
6.98	5.99761
7.2	7.04202
7.42	2.82104
7.64	6.82868
7.86	3.60711
8.08	1.45152
8.3	4.18881
8.52	3.66792
8.74	4.23477
8.96	4.3767
9.18	5.35388
9.4	2.59396
9.62	1.53366
9.84	7.63913
10.06	5.56302
10.28	2.76816
10.5	4.76557
10.72	6.72015
10.94	8.72765
11.16	12.9416
11.38	1.02677
11.6	3.04112
11.82	0.043176
12.04	3.06815
12.26	9.11701
12.48	4.19235
12.7	3.22675
12.92	0.188833
13.14	3.25976
13.36	5.20507
13.58	1.33147
13.8	4.28761
14.02	3.39759
14.24	1.4944
14.46	0.302389
14.68	11.825
14.9	2.92414
15.12	2.83894
15.34	1.92209
15.56	3.89854
15.78	5.88384
16	2.8961
16.22	4.91092
16.44	1.95717
16.66	4.82059
16.88	1.7687
17.1	3.61031
17.32	2.50682
17.54	6.59263
17.76	6.49552
17.98	7.47711
18.2	9.20622
18.42	3.07043
18.64	1.09706
18.86	3.93258
19.08	3.70894
19.3	46.6747
19.52	9.7969
19.74	3.68008
19.96	1.68441
20.18	5.05732
20.4	3.06391
20.62	6.09413
20.84	4.12337
21.06	5.00776
21.28	3.04711
21.5	3.04357
21.72	2.03278
21.94	7.05448
22.16	12.2609
22.38	7.36788
22.6	4.02672
22.82	4.0773
23.04	4.35629
23.26	7.42651
23.48	5.46843
23.7	1.46151
23.92	6.65438
24.14	4.66905
24.36	0.539124
24.58	3.48914
24.8	5.27172
25.02	0.330439
25.24	4.83257
25.46	2.44605
25.68	10.196
25.9	0.007079
26.12	7.80024
26.34	0.609152
26.56	6.09856
26.78	7.73357
27	1.57305
27.22	33.4933
27.44	80.1159
27.66	7.97169
27.88	1.06973
28.1	1.69443
28.32	2.34289
28.54	0.585101
28.76	6.52669
28.98	5.87478
29.2	9.97655
29.42	6.11927
29.64	271.178
29.86	11.3187
30.08	10.2048
30.3	8.17298
30.52	5.31122
30.74	2.60659
30.96	10.768
31.18	98.9761
31.4	14.9203
31.62	2.16454
31.84	6.14503
32.06	1.22206
32.28	5.29683
32.5	4.54887
32.72	2.64472
32.94	5.48728
33.16	5.47584
33.38	3.544
33.6	0.727165
33.82	29.7394
34.04	2.6643
34.26	0.641601
34.48	8.49371
34.7	3.68331
34.92	8.54696
35.14	3.5721
35.36	5.65884
35.58	2.5948
35.8	3.54332
36.02	3.45964
36.24	4.5861
36.46	5.65363
36.68	2.81049
36.9	4.96964
37.12	0.893234
37.34	5.09705
37.56	6.25528
37.78	3.17602
38	4.13836
38.22	0.079661
38.44	4.10874
38.66	1.9661
38.88	20.0128
39.1	10.7066
39.32	5.54848
39.54	2.38489
39.76	8.14404
39.98	3.96071
40.2	0.033694
40.42	2.26729
40.64	34.3055
40.86	13.177
41.08	3.1735
41.3	5.27275
41.52	3.47182
41.74	2.63547
41.96	21.8502
42.18	1.01699
42.4	3.07208
42.62	4.01637
42.84	2.81027
43.06	4.88719
43.28	6.15032
43.5	7.15848
43.72	9.1167
43.94	12.961
44.16	2.17221
44.38	3.07102
44.6	1.06444
44.82	2.1258
45.04	3.16863
45.26	6.24951
45.48	9.4601
45.7	4.39557
45.92	8.49305
46.14	8.54039
46.36	0.881276
46.58	0.159618
46.8	4.04712
47.02	4.15334
47.24	4.18393
47.46	1.2466
47.68	3.26491
47.9	6.33378
48.12	3.18186
48.34	6.17456
48.56	3.99883
48.78	3.69177
49	2.56884
49.22	1.37151
49.44	1.17918
49.66	12.0591
49.88	14.0151
50.1	4.17627
50.32	2.95984
50.54	1.96236
50.76	18.1039
50.98	5.10096
51.2	1.07959
51.42	6.96553
51.64	4.87758
51.86	3.93675
52.08	3.08075
52.3	38.9321
52.52	43.5331
52.74	30.4363
52.96	4.34804
53.18	1.14531
53.4	7.33568
53.62	7.55772
53.84	59.8092
54.06	6.04544
54.28	5.07496
54.5	2.1221
54.72	6.21074
54.94	3.27366
55.16	2.3004
55.38	6.2731
55.6	5.10561
55.82	0.02763
56.04	6.96997
56.26	59.8264
56.48	38.6119
56.7	6.59475
56.92	5.41657
57.14	0.772629
57.36	3.78742
57.58	10.833
57.8	6.89694
58.02	4.1426
58.24	0.318889
58.46	6.21512
58.68	7.24048
58.9	1.28193
59.12	2.46865
59.34	0.428951
59.56	5.26963
59.78	6.25394
60	9.2503
60.22	1.25198
60.44	2.06144
60.66	0.959349
60.88	3.15784
61.1	23.2701
61.32	6.2888
61.54	5.16151
61.76	4.41779
61.98	0.415432
62.2	5.5708
62.42	0.520735
62.64	3.46023
62.86	5.42094
63.08	1.28538
63.3	6.01502
63.52	11.7804
63.74	2.80376
63.96	6.71131
64.18	2.40169
64.4	1.4948
64.62	9.55401
64.84	1.8059
65.06	4.95589
65.28	3.20564
65.5	3.50103
65.72	2.63329
65.94	3.84441
66.16	6.79689
66.38	6.8678
66.6	3.03978
66.82	6.79793
67.04	4.67924
67.26	16.6923
67.48	7.67354
67.7	0.549549
67.92	3.56318
68.14	3.77452
68.36	4.90364
68.58	7.0161
68.8	3.13104
69.02	1.00434
69.24	0.953394
69.46	1.92912
69.68	7.07876
69.9	1.08488
70.12	5.04058
70.34	5.24456
70.56	3.14039
70.78	7.96224
71	10.9887
71.22	2.92795
71.44	3.91671
71.66	0.846948
71.88	0.808722
72.1	3.06752
72.32	11.0516
72.54	3.70888
72.76	8.54888
72.98	5.27652
73.2	0.060294
73.42	1.75124
73.64	3.55158
73.86	1.40914
74.08	5.32179
74.3	8.0683
74.52	6.0313
74.74	21.3018
74.96	20.5505
75.18	8.80091
75.4	3.02093
75.62	3.26111
75.84	7.4776
76.06	0.251207
76.28	6.95558
76.5	3.01651
76.72	2.13506
76.94	2.97764
77.16	1.73734
77.38	2.49638
77.6	1.23315
77.82	3.13633
78.04	3.07334
78.26	4.00305
78.48	2.85626
78.7	0.005839
78.92	3.08649
79.14	3.25515
79.36	4.35595
79.58	7.51401
79.8	0.70802
80.02	4.80695
80.24	4.86188
80.46	1.88564
80.68	0.9508
80.9	2.99314
81.12	2.79897
81.34	5.91101
81.56	4.68147
81.78	9.94178
82	0.9155
82.22	3.87304
82.44	3.91508
82.66	4.00108
82.88	4.10926
83.1	7.19379
83.32	11.2862
83.54	12.3814
83.76	1.50993
83.98	4.59277
84.2	2.37652
84.42	3.39034
84.64	3.3978
84.86	1.36373
85.08	4.27656
85.3	3.22016
85.52	1.04155
85.74	2.94488
85.96	5.73943
86.18	0.369394
86.4	0.196257
86.62	3.06419
86.84	1.95041
87.06	7.8685
87.28	12.8302
87.5	1.03045
87.72	2.09152
87.94	3.29091
88.16	2.46848
88.38	2.75832
88.6	4.11299
88.82	6.27595
89.04	1.68868
89.26	3.18621
89.48	8.05892
89.7	5.36958
89.92	5.57505
