Measurement: Powder, Xray Data XY Processed
Mineral: Pharmacoalumite
Rruff sample: R060411
Ideal chemistry: KAl_4_(As^5+^O_4_)_3_(OH)_4_6.5H_2_O
Locality: Maria Josefa, Rodalquilar, Almeria Province, Spain
Source: Bob Jenkins
Description: Pale green, yellow and colorless transparent single cubes associated with quartz
Diffraction sample description: Single crystal, powder profile is calculated
Measured chemistry: (K_0.75_Na_0.25_)_Σ=1_(Al_3.94_Fe^3+^_0.06_)_Σ=4_(As_1.00_O_4_)_3_(OH)_4_·6.5H_2_O ; H not measured but estimated by difference and stoichiometry
Cell parameters: a: 7.713(9) b: 7.713(9) c: 7.713(9) alpha: 90 beta: 90 gamma: 90 volume: 458.9(1) crystal system: cubic
x	intensity
5	0
5.22	0
5.44	0
5.66	0
5.88	0
6.1	0
6.32	0
6.54	0
6.76	0
6.98	0
7.2	0
7.42	0
7.64	0
7.86	0
8.08	0
8.3	0
8.52	0
8.74	0
8.96	0
9.18	0
9.4	0
9.62	0
9.84	0
10.06	0
10.28	0
10.5	0
10.72	0
10.94	0
11.16	0
11.38	0.687
11.6	0.012
11.82	0
12.04	0
12.26	0
12.48	0
12.7	0
12.92	0
13.14	0
13.36	0
13.58	0
13.8	0
14.02	0
14.24	0
14.46	0
14.68	0
14.9	0
15.12	0
15.34	0
15.56	0
15.78	0
16	0
16.22	0.746
16.44	0
16.66	0
16.88	0
17.1	0
17.32	0
17.54	0
17.76	0
17.98	0
18.2	0
18.42	0
18.64	0
18.86	0
19.08	0
19.3	0
19.52	0
19.74	0
19.96	29.656
20.18	0
20.4	0
20.62	0
20.84	0
21.06	0
21.28	0
21.5	0
21.72	0
21.94	0
22.16	0
22.38	0
22.6	0
22.82	0
23.04	34.021
23.26	0
23.48	0
23.7	0
23.92	0
24.14	0
24.36	0
24.58	0
24.8	0
25.02	0
25.24	0
25.46	0
25.68	0
25.9	0.329
26.12	0
26.34	0
26.56	0
26.78	0
27	0
27.22	0
27.44	0
27.66	0
27.88	0
28.1	0
28.32	11.151
28.54	0
28.76	0
28.98	0
29.2	0
29.42	0
29.64	0
29.86	0
30.08	0
30.3	0
30.52	0
30.74	0
30.96	0
31.18	0
31.4	0
31.62	0
31.84	0
32.06	0
32.28	0
32.5	0
32.72	0.384
32.94	8.725
33.16	0
33.38	0
33.6	0
33.82	0
34.04	0
34.26	0
34.48	0
34.7	0
34.92	1.894
35.14	0
35.36	0
35.58	0
35.8	0
36.02	0
36.24	0
36.46	0
36.68	0.001
36.9	4.63
37.12	0
37.34	0
37.56	0
37.78	0
38	0
38.22	0
38.44	0
38.66	12.252
38.88	0.121
39.1	0
39.32	0
39.54	0
39.76	0
39.98	0
40.2	0
40.42	2.142
40.64	1.529
40.86	0
41.08	0
41.3	0
41.52	0
41.74	0
41.96	0
42.18	0.067
42.4	0.003
42.62	0
42.84	0
43.06	0
43.28	0
43.5	0
43.72	0
43.94	0.489
44.16	0
44.38	0
44.6	0
44.82	0
45.04	0
45.26	0
45.48	0
45.7	0
45.92	0
46.14	0
46.36	0
46.58	0
46.8	0
47.02	0.005
47.24	0.019
47.46	0
47.68	0
47.9	0
48.12	0
48.34	0
48.56	0.413
48.78	1.986
49	0
49.22	0
49.44	0
49.66	0
49.88	0
50.1	1.632
50.32	0.618
50.54	0
50.76	0
50.98	0
51.2	0
51.42	0
51.64	5.432
51.86	0.023
52.08	0
52.3	0
52.52	0
52.74	0
52.96	0.268
53.18	6.169
53.4	0
53.62	0
53.84	0
54.06	0
54.28	0
54.5	0.399
54.72	0.005
54.94	0
55.16	0
55.38	0
55.6	0
55.82	0.46
56.04	0.471
56.26	0
56.48	0
56.7	0
56.92	0
57.14	0
57.36	0
57.58	0
57.8	0
58.02	0
58.24	0
58.46	0.016
58.68	1.125
58.9	0
59.12	0
59.34	0
59.56	0
59.78	0.003
60	0.406
60.22	0.001
60.44	0
60.66	0
60.88	0
61.1	0.002
61.32	0.095
61.54	0
61.76	0
61.98	0
62.2	0
62.42	0.072
62.64	0.711
62.86	0
63.08	0
63.3	0
63.52	0
63.74	0
63.96	0
64.18	0
64.4	0
64.62	0
64.84	0
65.06	0.291
65.28	0.123
65.5	0
65.72	0
65.94	0
66.16	0
66.38	0.359
66.6	0.031
66.82	0
67.04	0
67.26	0
67.48	0
67.7	0
67.92	0
68.14	0
68.36	0
68.58	0
68.8	10.231
69.02	4.065
69.24	0
69.46	0
69.68	0
69.9	0.01
70.12	0.076
70.34	0.005
70.56	0
70.78	0
71	0
71.22	0.727
71.44	0.379
71.66	0
71.88	0
72.1	0
72.32	0.033
72.54	0.102
72.76	0.013
72.98	0
73.2	0
73.42	0
73.64	4.937
73.86	2.308
74.08	0
74.3	0
74.52	0
74.74	0.003
74.96	0.002
75.18	0
75.4	0
75.62	0
75.84	0
76.06	0.088
76.28	0.049
76.5	0
76.72	0
76.94	0
77.16	0
77.38	0
77.6	0
77.82	0
78.04	0
78.26	0.311
78.48	0.082
78.7	0.007
78.92	0
79.14	0
79.36	0.002
79.58	0.253
79.8	0.262
80.02	0
80.24	0
80.46	0
80.68	0.014
80.9	0.007
81.12	0
81.34	0
81.56	0
81.78	1.15
82	0.223
82.22	0.001
82.44	0
82.66	0
82.88	0.185
83.1	0.031
83.32	0.098
83.54	0
83.76	0
83.98	0
84.2	0.021
84.42	0.039
84.64	0
84.86	0
85.08	0
85.3	0.297
85.52	0.177
85.74	0
85.96	0
86.18	0
86.4	0
86.62	0
86.84	0
87.06	0
87.28	0
87.5	0.005
87.72	0
87.94	0
88.16	0
88.38	0
88.6	0.009
88.82	0.005
89.04	0.046
89.26	0
89.48	0
89.7	0.001
89.92	0.155
