Measurement: Powder, Xray Data XY Processed
Mineral: Pharmacolite
Rruff sample: R050537
Ideal chemistry: Ca(As^5+^O_3_OH)2H_2_O
Locality: Bohemia Region, Svornost mine, Jachymov, Czech Republic
Source: University of Arizona Mineral Museum
Description: Colorless acicular crystals
Diffraction sample description: Single crystal, powder profile is calculated
Measured chemistry: (Ca_0.97_Al_0.02_[box]_0.01_)_Σ=1_((As_0.99_P_0.01_)_Σ=1_O_3_OH)·2H_2_O
Cell parameters: a: 5.971(3) b: 15.426(8) c: 6.270(2) alpha: 90 beta: 114.91(2) gamma: 90 volume: 523.8(2) crystal system: monoclinic
x	intensity
5	0
5.22	0
5.44	0
5.66	0
5.88	0
6.1	0
6.32	0
6.54	0
6.76	0
6.98	0
7.2	0
7.42	0
7.64	0
7.86	0
8.08	0
8.3	0
8.52	0
8.74	0
8.96	0
9.18	0
9.4	0
9.62	0
9.84	0
10.06	0
10.28	0
10.5	0
10.72	0
10.94	0
11.16	0
11.38	0.687
11.6	0.012
11.82	0
12.04	0
12.26	0
12.48	0
12.7	0
12.92	0
13.14	0
13.36	0
13.58	0
13.8	0
14.02	0
14.24	0
14.46	0
14.68	0
14.9	0
15.12	0
15.34	0
15.56	0
15.78	0
16	0
16.22	0
16.44	0
16.66	2.405
16.88	0
17.1	0
17.32	15.15
17.54	0
17.76	0
17.98	0
18.2	0
18.42	0
18.64	0
18.86	0
19.08	0
19.3	0
19.52	0
19.74	0
19.96	0
20.18	0
20.4	0
20.62	0.316
20.84	1.238
21.06	0
21.28	0
21.5	0
21.72	0
21.94	0
22.16	0
22.38	0
22.6	0
22.82	0
23.04	4.233
23.26	3.487
23.48	0.001
23.7	0
23.92	0.299
24.14	0
24.36	0
24.58	0
24.8	0
25.02	0
25.24	0
25.46	0
25.68	0
25.9	0
26.12	0
26.34	0
26.56	0
26.78	0
27	0
27.22	0
27.44	0
27.66	0
27.88	0
28.1	0
28.32	0
28.54	0
28.76	0.002
28.98	21.143
29.2	6.391
29.42	2.058
29.64	0.694
29.86	0
30.08	0
30.3	0
30.52	4.225
30.74	0
30.96	0
31.18	0
31.4	1.922
31.62	0.006
31.84	0
32.06	0
32.28	0
32.5	0
32.72	0
32.94	0.338
33.16	7.91
33.38	6.11
33.6	14.784
33.82	0.001
34.04	0
34.26	0
34.48	0
34.7	0.184
34.92	2.767
35.14	0.464
35.36	0
35.58	0
35.8	4.874
36.02	0.236
36.24	0
36.46	0
36.68	0.831
36.9	0.966
37.12	0
37.34	0
37.56	0
37.78	0
38	0
38.22	0
38.44	0
38.66	0
38.88	0
39.1	1.742
39.32	0.056
39.54	0
39.76	0
39.98	0
40.2	0
40.42	0
40.64	2.85
40.86	0.233
41.08	0.123
41.3	0.248
41.52	0
41.74	0
41.96	0.045
42.18	0.707
42.4	0
42.62	0
42.84	0
43.06	0.016
43.28	0
43.5	0
43.72	0
43.94	0.001
44.16	0.039
44.38	0.055
44.6	0.011
44.82	0.38
45.04	5.856
45.26	0.025
45.48	0.067
45.7	0.111
45.92	0.162
46.14	0.014
46.36	0.664
46.58	0
46.8	0
47.02	0.225
47.24	0.923
47.46	3.32
47.68	7.023
47.9	0.005
48.12	0
48.34	0.143
48.56	0.001
48.78	5.65
49	1.13
49.22	0
49.44	0
49.66	4.355
49.88	1.189
50.1	7.037
50.32	0.125
50.54	0.887
50.76	0.371
50.98	0.253
51.2	0
51.42	0.185
51.64	0.025
51.86	1.035
52.08	2.708
52.3	0.53
52.52	0.004
52.74	0
52.96	0
53.18	0
53.4	0
53.62	0
53.84	0.005
54.06	0
54.28	0
54.5	0
54.72	3.211
54.94	0.081
55.16	2.044
55.38	0.195
55.6	0
55.82	0.864
56.04	0.487
56.26	0.128
56.48	0.006
56.7	0.001
56.92	0.282
57.14	0.47
57.36	0.925
57.58	0.001
57.8	0.315
58.02	0
58.24	0
58.46	0
58.68	0.789
58.9	2.074
59.12	0.068
59.34	1.944
59.56	0.022
59.78	1.758
60	1.007
60.22	0.497
60.44	0.029
60.66	0.721
60.88	0.016
61.1	0.056
61.32	0.559
61.54	0
61.76	0.089
61.98	0.005
62.2	0.345
62.42	0.906
62.64	0.193
62.86	1.917
63.08	1.545
63.3	1.48
63.52	0.988
63.74	0.568
63.96	0.801
64.18	0.088
64.4	0.061
64.62	0.052
64.84	0.104
65.06	2.289
65.28	0.751
65.5	0.116
65.72	0.1
65.94	0.671
66.16	0.387
66.38	0.358
66.6	0.096
66.82	0.108
67.04	0.271
67.26	0.058
67.48	0.602
67.7	0.805
67.92	0.066
68.14	0.003
68.36	0.002
68.58	0.012
68.8	0.006
69.02	0.021
69.24	0.027
69.46	0.082
69.68	0.003
69.9	0.23
70.12	0.087
70.34	0.003
70.56	1.588
70.78	0.8
71	0.001
71.22	0.47
71.44	0.202
71.66	0.056
71.88	0.052
72.1	0.089
72.32	0.028
72.54	0.025
72.76	0.022
72.98	0
73.2	0.255
73.42	1.58
73.64	1.165
73.86	0.788
74.08	0.437
74.3	0.099
74.52	0.132
74.74	0.477
74.96	0.215
75.18	0.005
75.4	0
75.62	0.029
75.84	0.017
76.06	0.164
76.28	0.875
76.5	1.528
76.72	0.585
76.94	0.027
77.16	0.012
77.38	0
77.6	0.006
77.82	0.021
78.04	0.018
78.26	0.014
78.48	0.243
78.7	0.174
78.92	0.465
79.14	0.333
79.36	1.521
79.58	0.785
79.8	0.032
80.02	1.008
80.24	0.385
80.46	0.015
80.68	0
80.9	0
81.12	0
81.34	0
81.56	0.683
81.78	0.197
82	0.02
82.22	0.775
82.44	0.237
82.66	0.033
82.88	0.523
83.1	1.128
83.32	0.475
83.54	0.174
83.76	0
83.98	1.01
84.2	0.599
84.42	0.114
84.64	0.897
84.86	0.338
85.08	0
85.3	0.002
85.52	0.042
85.74	0.02
85.96	0.001
86.18	0.114
86.4	0.042
86.62	0.002
86.84	0.005
87.06	0.042
87.28	0.001
87.5	0.01
87.72	0.169
87.94	0.074
88.16	0.427
88.38	0.687
88.6	0.087
88.82	0.079
89.04	0.078
89.26	0.005
89.48	0.18
89.7	0.018
89.92	0.053
