Measurement: Powder, Xray Data XY Processed
Mineral: Phillipsite-Ca
Rruff sample: R060161
Ideal chemistry: Ca_3_(Si_10_Al_6_)O_32_12H_2_O
Locality: Sasback on Rhine, Germany
Source: Marcus Origlieri
Description: Coating of colorless pseudo-octahedral shaped crystals
Diffraction sample description: Powder
Measured chemistry: (K_0.72_Ca_0.50_Na_0.17_Ba_0.03_)_Σ=1.42_(Si_5.65_Al_2.35_)_Σ=8_O_16_·6H_2_O
Cell parameters: a: 9.9354(4) b: 14.214(1) c: 14.2894(7) alpha: 90. beta: 90. gamma: 90. volume: 2018.0(2) crystal system: orthorhombic
x	intensity
5	0
5.22	6.833
5.44	3.1
5.66	5.994
5.88	1.447
6.1	4.898
6.32	8.45
6.54	2.642
6.76	6.231
6.98	9.095
7.2	3.834
7.42	4.534
7.64	7.26
7.86	6.503
8.08	0.35
8.3	9.23
8.52	6.697
8.74	7.117
8.96	2.81
9.18	6.906
9.4	0.838
9.62	6.578
9.84	0.454
10.06	11.321
10.28	1.056
10.5	0.272
10.72	0.602
10.94	41.604
11.16	6.09
11.38	1.603
11.6	8.416
11.82	4.677
12.04	5.045
12.26	9.134
12.48	269.253
12.7	8.039
12.92	3.872
13.14	5.321
13.36	3.456
13.58	7.883
13.8	20.126
14.02	11.45
14.24	0.409
14.46	0.59
14.68	0.057
14.9	6.264
15.12	1.645
15.34	2.839
15.56	3.725
15.78	9.831
16	2.662
16.22	0.675
16.44	0.534
16.66	29.075
16.88	5.426
17.1	1.24
17.32	0.002
17.54	3.351
17.76	7.571
17.98	17.87
18.2	9.241
18.42	3.312
18.64	7.353
18.86	0.224
19.08	0.258
19.3	2.48
19.52	0.128
19.74	0.21
19.96	1.434
20.18	3.37
20.4	0.002
20.62	4.266
20.84	4.987
21.06	3.753
21.28	0.15
21.5	13.428
21.72	144.966
21.94	32.748
22.16	2.896
22.38	0.412
22.6	26.591
22.82	8.168
23.04	6.505
23.26	7.675
23.48	0.684
23.7	5.719
23.92	1.197
24.14	12.063
24.36	7.011
24.58	6.077
24.8	11.675
25.02	1.376
25.24	5.37
25.46	1.149
25.68	0.141
25.9	6.388
26.12	4.008
26.34	2.033
26.56	2.311
26.78	1.389
27	6.376
27.22	1.486
27.44	87.403
27.66	40.344
27.88	13.799
28.1	265.948
28.32	27.969
28.54	25.675
28.76	5.282
28.98	6.843
29.2	3.523
29.42	14.167
29.64	2.929
29.86	3.633
30.08	3.226
30.3	8.652
30.52	50.854
30.74	12.079
30.96	2.508
31.18	9.591
31.4	0.326
31.62	6.966
31.84	0.175
32.06	0.094
32.28	0.962
32.5	5.825
32.72	59.969
32.94	6.507
33.16	5.984
33.38	94.388
33.6	35.823
33.82	0.761
34.04	8.214
34.26	0.319
34.48	4.169
34.7	9.647
34.92	0.041
35.14	13.621
35.36	21.266
35.58	4.853
35.8	13.027
36.02	0.144
36.24	3.919
36.46	2.243
36.68	1.26
36.9	0.372
37.12	0.301
37.34	6.388
37.56	4.137
37.78	7.843
38	7.803
38.22	2.661
38.44	0.392
38.66	19.128
38.88	0.46
39.1	0.53
39.32	0.207
39.54	3.47
39.76	15.726
39.98	4.14
40.2	14.392
40.42	6.336
40.64	13.969
40.86	0.372
41.08	5.97
41.3	0.161
41.52	9.084
41.74	0.173
41.96	10.987
42.18	0.324
42.4	0.319
42.62	3.75
42.84	3.277
43.06	0.394
43.28	0.028
43.5	4.838
43.72	10.18
43.94	6.57
44.16	12.904
44.38	11.567
44.6	6.947
44.82	1.246
45.04	3.381
45.26	6.522
45.48	10.676
45.7	2.982
45.92	4.576
46.14	26.445
46.36	9.168
46.58	3.915
46.8	0.539
47.02	0.015
47.24	1.154
47.46	3.763
47.68	6.43
47.9	2.714
48.12	4.843
48.34	1.639
48.56	2.504
48.78	5.505
49	14.44
49.22	0.446
49.44	0.285
49.66	0.295
49.88	1.137
50.1	9.805
50.32	7.545
50.54	0.256
50.76	0.63
50.98	2.943
51.2	18.513
51.42	13.971
51.64	30.327
51.86	9.005
52.08	1.519
52.3	2.657
52.52	3.78
52.74	0.071
52.96	0.284
53.18	18.825
53.4	24.977
53.62	9.115
53.84	2.062
54.06	2.839
54.28	0.261
54.5	1.743
54.72	11.283
54.94	9.767
55.16	11.786
55.38	3.538
55.6	7.344
55.82	0.629
56.04	6.37
56.26	19.62
56.48	5.703
56.7	4.692
56.92	3.836
57.14	4.366
57.36	1.053
57.58	7.35
57.8	8.873
58.02	7.017
58.24	3.069
58.46	2.951
58.68	1.794
58.9	9.719
59.12	2.809
59.34	5.645
59.56	0.397
59.78	2.444
60	7.494
60.22	8.734
60.44	7.551
60.66	14.812
60.88	1.019
61.1	0.054
61.32	5.321
61.54	5.237
61.76	6.327
61.98	0.348
62.2	0.202
62.42	8.009
62.64	11.824
62.86	8.278
63.08	12.913
63.3	7.785
63.52	14.827
63.74	0.112
63.96	6.914
64.18	6.245
64.4	5.11
64.62	0.333
64.84	4.273
65.06	7.685
65.28	4.974
65.5	5.999
65.72	8.838
65.94	0.315
66.16	5.488
66.38	0.228
66.6	5.191
66.82	3.184
67.04	0.31
67.26	8.969
67.48	6.608
67.7	10.799
67.92	0.56
68.14	3.945
68.36	3.028
68.58	7.648
68.8	9.581
69.02	7.062
69.24	2.241
69.46	1.329
69.68	0.329
69.9	5.811
70.12	1.87
70.34	0.038
70.56	2.945
70.78	3.946
71	9.48
71.22	10.672
71.44	8.585
71.66	2.788
71.88	1.589
72.1	3.668
72.32	1.184
72.54	3.54
72.76	7.747
72.98	8.66
73.2	2.344
73.42	4.893
73.64	5.81
73.86	4.596
74.08	8.297
74.3	12.165
74.52	9.237
74.74	0.38
74.96	4.172
75.18	9.226
75.4	4.72
75.62	4.229
75.84	3.663
76.06	7.704
76.28	0.821
76.5	4.003
76.72	1.393
76.94	0.101
77.16	4.892
77.38	5.743
77.6	7.668
77.82	5.259
78.04	4.914
78.26	0.547
78.48	6.761
78.7	1.19
78.92	3.109
79.14	0.422
79.36	2.037
79.58	8.547
79.8	3.717
80.02	7.693
80.24	8.818
80.46	8.07
80.68	8.416
80.9	2.119
81.12	4.893
81.34	3.931
81.56	0.166
81.78	0.899
82	4.74
82.22	0.189
82.44	7.3
82.66	2.361
82.88	2.208
83.1	0.14
83.32	0.368
83.54	3.808
83.76	4.876
83.98	7.903
84.2	0.091
84.42	0.151
84.64	0.641
84.86	4.337
85.08	0.136
85.3	9.381
85.52	4.306
85.74	4.316
85.96	1.241
86.18	11.318
86.4	9.283
86.62	3.321
86.84	4.324
87.06	3.501
87.28	0.531
87.5	0.316
87.72	0.317
87.94	0.904
88.16	2.825
88.38	2.852
88.6	4.92
88.82	2.179
89.04	6.197
89.26	0.291
89.48	6.21
89.7	8.595
89.92	5.441
