Measurement: Powder, Xray Data XY Processed
Mineral: Phlogopite
Rruff sample: R050068
Ideal chemistry: KMg_3_(Si_3_Al)O_10_(OH)_2_
Locality: S.W. Jasper County, Georgia, USA
Source: Rock Currier
Description: Dark brown micaceous single crystal
Diffraction sample description: Powder
Measured chemistry: (K_0.94_Na_0.05_[box]_0.01_)(Mg_0.94_Fe_0.06_)_3_(Si_3.00_Al_1.00_)O_10_((OH)_0.53_F_0.47_)_2_
Cell parameters: a: 5.315(2) b: 9.179(1) c: 10.1737(9) alpha: 90. beta: 100.08(2) gamma: 90. volume: 488.7(2) crystal system: monoclinic
x	intensity
5	0
5.22	20.318
5.44	16.751
5.66	18.063
5.88	4.744
6.1	17.339
6.32	1.605
6.54	11.644
6.76	17.548
6.98	17.1
7.2	16.711
7.42	22.117
7.64	3.531
7.86	1.517
8.08	10.79
8.3	12.049
8.52	19.329
8.74	73.922
8.96	204.634
9.18	16.951
9.4	1.152
9.62	2.194
9.84	10.251
10.06	10.176
10.28	5.192
10.5	5.206
10.72	2.34
10.94	8.96
11.16	7.08
11.38	1.068
11.6	8.287
11.82	8.69
12.04	3.23
12.26	12.705
12.48	18.87
12.7	10.256
12.92	1.605
13.14	2.035
13.36	9.187
13.58	9.032
13.8	0.913
14.02	1.841
14.24	4.8
14.46	1.682
14.68	2.187
14.9	6.135
15.12	7.138
15.34	8.112
15.56	6.089
15.78	2.929
16	3.379
16.22	1.44
16.44	4.703
16.66	5.513
16.88	5.666
17.1	0.808
17.32	5.751
17.54	0.442
17.76	28.322
17.98	9.276
18.2	13.143
18.42	6.788
18.64	7.771
18.86	4.82
19.08	10.802
19.3	23.62
19.52	7.679
19.74	4.829
19.96	6.993
20.18	11.077
20.4	1.188
20.62	2.372
20.84	9.399
21.06	2.6
21.28	8.435
21.5	5.535
21.72	15.558
21.94	8.475
22.16	7.719
22.38	2.297
22.6	4.778
22.82	14.482
23.04	7.119
23.26	13.818
23.48	6.247
23.7	1.641
23.92	4.79
24.14	6.558
24.36	50.931
24.58	8.96
24.8	3.127
25.02	10.405
25.24	3.928
25.46	6.464
25.68	36.093
25.9	10.848
26.12	7.978
26.34	55.987
26.56	32.815
26.78	298.095
27	26.483
27.22	1.804
27.44	1.832
27.66	6.5
27.88	7.027
28.1	10.678
28.32	21.327
28.54	68.741
28.76	8.375
28.98	5.482
29.2	3.673
29.42	0.334
29.64	9.74
29.86	8.775
30.08	9.883
30.3	10.83
30.52	12.256
30.74	44.348
30.96	11.129
31.18	20.364
31.4	8.339
31.62	7.273
31.84	2.575
32.06	5.296
32.28	5.098
32.5	3.954
32.72	9.568
32.94	13.792
33.16	25.908
33.38	9.094
33.6	4.32
33.82	6.427
34.04	21.702
34.26	24.233
34.48	7.99
34.7	12.851
34.92	3.469
35.14	30.714
35.36	23.675
35.58	12.428
35.8	9.811
36.02	9.813
36.24	9.359
36.46	1.852
36.68	4.305
36.9	17.746
37.12	29.144
37.34	13.675
37.56	9.667
37.78	12.973
38	2.123
38.22	12.713
38.44	7.97
38.66	0.021
38.88	2.111
39.1	6.366
39.32	9.374
39.54	0.35
39.76	7.351
39.98	4.049
40.2	1.07
40.42	2.697
40.64	4.146
40.86	1.142
41.08	5.727
41.3	2.817
41.52	5.977
41.74	19.996
41.96	17.755
42.18	4.608
42.4	4.662
42.62	9.687
42.84	4.933
43.06	6.917
43.28	33.092
43.5	44.448
43.72	17.153
43.94	5.711
44.16	4.556
44.38	10.601
44.6	8.659
44.82	8.708
45.04	10.952
45.26	61.432
45.48	33.799
45.7	10.865
45.92	5.911
46.14	3.549
46.36	0.109
46.58	10.442
46.8	6.768
47.02	9.112
47.24	4.612
47.46	4.682
47.68	0.675
47.9	17.104
48.12	6.283
48.34	16.34
48.56	5.053
48.78	7.102
49	5.269
49.22	5.586
49.44	2.894
49.66	5.747
49.88	8.908
50.1	5.705
50.32	5.375
50.54	8.417
50.76	0.423
50.98	9.149
51.2	4.838
51.42	11.487
51.64	5.924
51.86	10.321
52.08	4.094
52.3	8.99
52.52	19.801
52.74	14.529
52.96	10.987
53.18	9.128
53.4	8.371
53.62	9.244
53.84	5.071
54.06	1.949
54.28	5.861
54.5	5.551
54.72	19.331
54.94	28.165
55.16	37.392
55.38	10.477
55.6	9.424
55.82	3.378
56.04	4.335
56.26	3.624
56.48	9.382
56.7	4.412
56.92	12.417
57.14	11.439
57.36	15.806
57.58	29.56
57.8	17.747
58.02	11.908
58.24	5.062
58.46	6.385
58.68	17.706
58.9	5.949
59.12	3.988
59.34	0.981
59.56	4.914
59.78	4.607
60	14.45
60.22	17.253
60.44	28.872
60.66	11.018
60.88	2.882
61.1	8.738
61.32	7.02
61.54	1.918
61.76	6.43
61.98	13.767
62.2	8.132
62.42	11.637
62.64	0.839
62.86	1.19
63.08	4.539
63.3	6.765
63.52	1.122
63.74	9.063
63.96	0.24
64.18	1.529
64.4	4.29
64.62	4.179
64.84	4.975
65.06	10.965
65.28	17.459
65.5	14.785
65.72	1.349
65.94	7.893
66.16	2.258
66.38	10.699
66.6	7.519
66.82	1.029
67.04	0.314
67.26	8.161
67.48	2.527
67.7	11.199
67.92	8.876
68.14	11.662
68.36	12.775
68.58	11.119
68.8	4.329
69.02	23.795
69.24	29.671
69.46	6.308
69.68	0.677
69.9	5.857
70.12	6.367
70.34	1.823
70.56	5.622
70.78	4.571
71	8.47
71.22	10.437
71.44	6.003
71.66	11.389
71.88	0.784
72.1	7.365
72.32	11.292
72.54	6.461
72.76	3.559
72.98	4.362
73.2	5.889
73.42	0.295
73.64	10.557
73.86	1.003
74.08	5.55
74.3	5.854
74.52	7.081
74.74	5.004
74.96	6.999
75.18	0.794
75.4	2.656
75.62	5.207
75.84	2.034
76.06	16.78
76.28	5.491
76.5	2.115
76.72	1.91
76.94	11.102
77.16	5.428
77.38	6.662
77.6	11.568
77.82	9.763
78.04	4.876
78.26	9.237
78.48	6.366
78.7	11.773
78.92	1.104
79.14	5.065
79.36	0.762
79.58	6.793
79.8	7.728
80.02	4.734
80.24	18.69
80.46	4.727
80.68	0.543
80.9	5.832
81.12	1.652
81.34	4.562
81.56	10.948
81.78	3.771
82	6.961
82.22	6.018
82.44	7.203
82.66	9.394
82.88	8.412
83.1	0.312
83.32	2.371
83.54	2.442
83.76	3.58
83.98	8.205
84.2	4.293
84.42	6.124
84.64	6.136
84.86	3.975
85.08	1.746
85.3	3.842
85.52	2.88
85.74	14.506
85.96	3.092
86.18	8.844
86.4	9.952
86.62	8.047
86.84	8.198
87.06	10.257
87.28	8.332
87.5	8.472
87.72	9.513
87.94	3.55
88.16	2.679
88.38	3.244
88.6	4.593
88.82	12.527
89.04	4.623
89.26	9.874
89.48	9.049
89.7	6.663
89.92	11.336
