Measurement: Powder, Xray Data XY Processed
Mineral: Phlogopite
Rruff sample: R070330
Ideal chemistry: KMg_3_(Si_3_Al)O_10_(OH)_2_
Locality: Little Chief mine, Whitehorse, Yukon Territory, Canada
Source: Mark Mauthner
Description: Green micaceous
Diffraction sample description: Powder
Measured chemistry: K_1.00_(Mg_2.65_Fe^2+^_0.34_Ti_0.01_)_Σ=3_(Si_2.98_Al_1.02_)O_10_((OH)_1.77_F_0.23_)_Σ=2_; (gray area) trace amounts of Mn; OH by charge balance; light phase is diopside: Ca_1.00_(Mg_0.96_Fe_0.04_)_Σ=1_Si_2.00_O_6_; dark phase: Mg-rich chlorite
Cell parameters: a: 5.3725(3) b: 9.1621(3) c: 10.2967(4) alpha: 90 beta: 100.50(1) gamma: 90 volume: 498.35(3) crystal system: monoclinic
x	intensity
5	0
5.22	10.7831
5.44	9.55711
5.66	14.5305
5.88	24.7831
6.1	57.2566
6.32	34.2286
6.54	28.8801
6.76	15.3651
6.98	13.7118
7.2	4.2324
7.42	7.27912
7.64	4.51335
7.86	66.684
8.08	22.0189
8.3	30.8441
8.52	211.621
8.74	5889.58
8.96	138.211
9.18	50.4311
9.4	16.604
9.62	8.02558
9.84	1.33547
10.06	10.2957
10.28	6.01139
10.5	20.4452
10.72	4.07503
10.94	5.05321
11.16	7.6128
11.38	7.05851
11.6	17.7369
11.82	19.805
12.04	46.5692
12.26	64.7607
12.48	101.626
12.7	30.0548
12.92	17.7197
13.14	8.13781
13.36	13.0766
13.58	29.7362
13.8	22.7152
14.02	16.1872
14.24	20.3065
14.46	9.86186
14.68	11.7042
14.9	5.91101
15.12	18.624
15.34	14.4237
15.56	5.59052
15.78	15.6653
16	11.0697
16.22	6.20197
16.44	11.2633
16.66	12.586
16.88	7.90916
17.1	23.9114
17.32	34.2615
17.54	252.154
17.76	24.1254
17.98	29.6964
18.2	15.5357
18.42	34.8577
18.64	72.3106
18.86	21.9243
19.08	30.9149
19.3	7.91463
19.52	12.6381
19.74	2.63317
19.96	15.3936
20.18	12.8131
20.4	12.0001
20.62	0.069111
20.84	20.5519
21.06	21.2533
21.28	6.70028
21.5	4.68641
21.72	22.0184
21.94	14.9145
22.16	5.6932
22.38	13.116
22.6	15.8707
22.82	7.38374
23.04	12.7968
23.26	7.31925
23.48	7.93101
23.7	1.53387
23.92	0.811047
24.14	3.05335
24.36	30.1113
24.58	9.07398
24.8	28.2382
25.02	62.6963
25.24	5.19159
25.46	40.7945
25.68	57.8424
25.9	13.5904
26.12	39.2105
26.34	619.052
26.56	133.714
26.78	7.85525
27	1.31054
27.22	8.66992
27.44	15.2878
27.66	15.0654
27.88	12.115
28.1	0.377487
28.32	7.1388
28.54	8.71011
28.76	21.0793
28.98	14.0622
29.2	1.07822
29.42	15.5412
29.64	13.3754
29.86	17.9402
30.08	16.0851
30.3	2.04291
30.52	14.152
30.74	2.93932
30.96	6.40239
31.18	8.80206
31.4	23.6832
31.62	21.1058
31.84	24.2725
32.06	0.154503
32.28	15.1565
32.5	7.32826
32.72	14.6195
32.94	7.29385
33.16	29.5663
33.38	9.32308
33.6	29.4324
33.82	9.96632
34.04	10.0957
34.26	20.9992
34.48	15.0433
34.7	16.9184
34.92	23.8326
35.14	72.012
35.36	52.8516
35.58	87.7512
35.8	3.18778
36.02	16.445
36.24	21.3189
36.46	6.06986
36.68	6.78814
36.9	10.8778
37.12	11.6438
37.34	6.47261
37.56	9.47652
37.78	29.081
38	22.9865
38.22	3.87911
38.44	18.5045
38.66	7.91383
38.88	7.80013
39.1	19.3111
39.32	9.92483
39.54	10.0704
39.76	13.9136
39.98	15.9226
40.2	20.6549
40.42	2.00859
40.64	4.69472
40.86	10.0491
41.08	8.80573
41.3	19.0701
41.52	29.8723
41.74	4.88016
41.96	9.95114
42.18	6.99667
42.4	10.1337
42.62	5.62835
42.84	26.26
43.06	6.66516
43.28	46.1719
43.5	30.063
43.72	25.4296
43.94	16.5384
44.16	1.99898
44.38	15.5269
44.6	61.6864
44.82	181.622
45.04	12.2633
45.26	22.1129
45.48	15.3477
45.7	4.56791
45.92	2.06262
46.14	10.8594
46.36	5.11969
46.58	15.3169
46.8	1.92568
47.02	9.29586
47.24	9.09541
47.46	5.2639
47.68	26.9506
47.9	11.2917
48.12	7.2711
48.34	6.57073
48.56	13.5519
48.78	16.9401
49	13.518
49.22	9.41962
49.44	11.6007
49.66	2.90005
49.88	18.6301
50.1	9.73287
50.32	10.0268
50.54	1.52643
50.76	8.38704
50.98	2.23097
51.2	20.973
51.42	22.4036
51.64	3.9818
51.86	16.6465
52.08	2.10692
52.3	23.975
52.52	23.7346
52.74	17.6805
52.96	2.56447
53.18	3.6075
53.4	3.71651
53.62	1.90882
53.84	4.27568
54.06	10.5633
54.28	15.2471
54.5	40.2001
54.72	22.0414
54.94	3.2492
55.16	5.8768
55.38	4.4271
55.6	2.41019
55.82	11.5238
56.04	4.46902
56.26	2.24928
56.48	6.16304
56.7	4.0387
56.92	13.6727
57.14	14.779
57.36	26.532
57.58	38.1731
57.8	12.2642
58.02	10.5964
58.24	8.20824
58.46	11.5161
58.68	1.14956
58.9	8.129
59.12	1.58693
59.34	11.8009
59.56	18.8194
59.78	25.7891
60	26.8932
60.22	22.0336
60.44	3.19097
60.66	3.98736
60.88	15.5804
61.1	12.1161
61.32	10.3753
61.54	12.6114
61.76	11.1006
61.98	10.4284
62.2	3.06746
62.42	5.16996
62.64	9.97057
62.86	4.02389
63.08	16.1654
63.3	15.4847
63.52	6.36558
63.74	24.4839
63.96	15.8444
64.18	12.6348
64.4	36.3237
64.62	7.22379
64.84	3.58643
65.06	8.55949
65.28	0.510214
65.5	10.2092
65.72	8.14529
65.94	10.1081
66.16	8.63249
66.38	11.1829
66.6	10.842
66.82	17.7354
67.04	22.4878
67.26	4.96246
67.48	16.8507
67.7	9.86266
67.92	22.4268
68.14	17.6785
68.36	24.29
68.58	22.8547
68.8	9.33975
69.02	12.1421
69.24	4.53574
69.46	7.08728
69.68	9.40153
69.9	9.93886
70.12	0.632813
70.34	4.12675
70.56	5.145
70.78	7.13399
71	3.42215
71.22	16.4068
71.44	8.20194
71.66	16.4206
71.88	6.57358
72.1	15.8072
72.32	1.11342
72.54	6.09126
72.76	12.0516
72.98	12.5285
73.2	7.67021
73.42	18.7313
73.64	10.7721
73.86	4.32948
74.08	14.6965
74.3	13.6449
74.52	10.9191
74.74	20.1001
74.96	32.3536
75.18	22.6345
75.4	16.4523
75.62	8.25282
75.84	2.0278
76.06	6.95911
76.28	12.0336
76.5	13.1876
76.72	4.52354
76.94	23.2482
77.16	11.5588
77.38	10.8678
77.6	8.38007
77.82	15.4283
78.04	13.9436
78.26	14.2008
78.48	0.343246
78.7	10.2658
78.92	6.31701
79.14	13.0036
79.36	3.07403
79.58	10.6772
79.8	8.03835
80.02	5.58104
80.24	10.8046
80.46	4.36449
80.68	5.30832
80.9	7.41527
81.12	10.4673
81.34	1.56107
81.56	3.64283
81.78	5.5258
82	6.58783
82.22	14.6798
82.44	10.7613
82.66	7.92165
82.88	12.7199
83.1	2.72131
83.32	7.79027
83.54	13.2522
83.76	3.23576
83.98	14.0685
84.2	5.24597
84.42	9.11262
84.64	2.05236
84.86	5.34344
85.08	4.05477
85.3	1.60313
85.52	7.40722
85.74	5.60603
85.96	8.29293
86.18	1.22279
86.4	2.19004
86.62	6.30543
86.84	10.55
87.06	9.72584
87.28	9.43721
87.5	13.718
87.72	6.75868
87.94	10.0373
88.16	16.8658
88.38	0.027515
88.6	15.7259
88.82	0.265341
89.04	2.96773
89.26	3.47466
89.48	4.496
89.7	3.56188
89.92	6.43969
