Measurement: Powder, Xray Data XY Processed
Mineral: Phosphophyllite
Rruff sample: R050224
Ideal chemistry: Zn^2+^_2_Fe^2+^(P^5+^O_4_)_2_4H_2_O
Locality: Unificada mine, Cerro Rico, Potosi, Bolivia
Source: Marcus Origlieri
Description: Pale blue single crystal fragments
Diffraction sample description: Powder
Measured chemistry: Zn_2.00_Fe^2+^_1.00_(P_1.00_O_4_)_2_Â·4H_2_O
Cell parameters: a: 10.3931(6) b: 5.0917(3) c: 10.5736(7) alpha: 90. beta: 121.125(4) gamma: 90. volume: 478.99(3) crystal system: monoclinic
x	intensity
5	0
5.22	23.241
5.44	4.603
5.66	14.332
5.88	20.675
6.1	21.412
6.32	2.458
6.54	15.952
6.76	42.148
6.98	19.428
7.2	22.987
7.42	13.591
7.64	8.858
7.86	6.997
8.08	16.965
8.3	20.144
8.52	8.672
8.74	8.276
8.96	13.297
9.18	3.79
9.4	8.269
9.62	22.92
9.84	81.394
10.06	55.311
10.28	17.519
10.5	3.838
10.72	7.475
10.94	7.625
11.16	3.238
11.38	7.555
11.6	9.954
11.82	5.342
12.04	7.513
12.26	11.111
12.48	20.314
12.7	2.514
12.92	21.822
13.14	6.711
13.36	13.023
13.58	17.183
13.8	2.227
14.02	22.118
14.24	9.978
14.46	18.081
14.68	7.691
14.9	6.788
15.12	8.208
15.34	7.081
15.56	10.003
15.78	7.294
16	9.714
16.22	6.815
16.44	3.83
16.66	18.944
16.88	14.934
17.1	10.791
17.32	20.334
17.54	6.676
17.76	27.557
17.98	16.021
18.2	18.262
18.42	11.273
18.64	9.314
18.86	8.646
19.08	12.851
19.3	19.021
19.52	107.372
19.74	16.415
19.96	316.617
20.18	78.178
20.4	0.868
20.62	9.782
20.84	13.395
21.06	10.799
21.28	8.31
21.5	12.187
21.72	15.906
21.94	18.976
22.16	13.571
22.38	6.774
22.6	22.237
22.82	24.795
23.04	9.907
23.26	1.783
23.48	26.834
23.7	23.905
23.92	10.87
24.14	21.52
24.36	13.488
24.58	17.987
24.8	22.888
25.02	10.172
25.24	4.598
25.46	27.821
25.68	7.341
25.9	20.324
26.12	57.556
26.34	198.282
26.56	35.16
26.78	17.399
27	0.551
27.22	3.47
27.44	5.826
27.66	2.389
27.88	2.319
28.1	18.978
28.32	15.027
28.54	26.25
28.76	16.09
28.98	16.173
29.2	11.941
29.42	9.473
29.64	7.708
29.86	0.148
30.08	14.783
30.3	2.554
30.52	9.387
30.74	8.834
30.96	8.115
31.18	5.275
31.4	42.75
31.62	123.494
31.84	99.215
32.06	12.611
32.28	12.59
32.5	11.812
32.72	11.073
32.94	7.923
33.16	14.598
33.38	1.105
33.6	12.011
33.82	27.371
34.04	29.76
34.26	23.181
34.48	47.458
34.7	16.415
34.92	27.035
35.14	24.808
35.36	50.457
35.58	40.193
35.8	2.747
36.02	19.384
36.24	16.383
36.46	13.49
36.68	40.238
36.9	16.77
37.12	19.462
37.34	4.86
37.56	17.033
37.78	2.872
38	20.751
38.22	24.308
38.44	10.155
38.66	14.767
38.88	5.465
39.1	30.965
39.32	15.029
39.54	19.475
39.76	6.715
39.98	17.425
40.2	3.844
40.42	22.72
40.64	51.903
40.86	28.45
41.08	3.504
41.3	12.168
41.52	21.041
41.74	3.876
41.96	21.611
42.18	17.579
42.4	10.421
42.62	16.613
42.84	14.679
43.06	9.103
43.28	21.009
43.5	14.385
43.72	3.984
43.94	11.012
44.16	33.272
44.38	17.487
44.6	16.498
44.82	9.264
45.04	10.92
45.26	9.875
45.48	18.527
45.7	27.775
45.92	23.698
46.14	14.524
46.36	3.802
46.58	7.985
46.8	6.343
47.02	31.158
47.24	1.152
47.46	4.636
47.68	35.744
47.9	26.867
48.12	40.766
48.34	15.574
48.56	4.749
48.78	10.211
49	31.647
49.22	6.984
49.44	28.354
49.66	24.065
49.88	25.019
50.1	34.004
50.32	8.574
50.54	1.568
50.76	19.017
50.98	29.814
51.2	4.325
51.42	27.537
51.64	11.937
51.86	2.984
52.08	12.362
52.3	20.888
52.52	12.677
52.74	2.764
52.96	28.883
53.18	22.198
53.4	15.27
53.62	25.295
53.84	11.64
54.06	5.723
54.28	12.684
54.5	5.392
54.72	17.153
54.94	10.153
55.16	20.406
55.38	0.702
55.6	12.994
55.82	14.254
56.04	11.776
56.26	12.311
56.48	20.113
56.7	10.039
56.92	21.12
57.14	22.289
57.36	19.128
57.58	8.2
57.8	7.165
58.02	14.703
58.24	4.778
58.46	13.062
58.68	13.148
58.9	4.678
59.12	15.851
59.34	2.761
59.56	5.465
59.78	7.244
60	30.878
60.22	9.827
60.44	9.221
60.66	18.183
60.88	44.415
61.1	22.301
61.32	19.507
61.54	6.245
61.76	13.983
61.98	7.105
62.2	7.275
62.42	9.713
62.64	74.724
62.86	34.451
63.08	12.157
63.3	11.19
63.52	17.821
63.74	28.448
63.96	16.473
64.18	2.171
64.4	16.434
64.62	20.668
64.84	9.45
65.06	9.279
65.28	18.677
65.5	27.634
65.72	25.023
65.94	15.157
66.16	34.689
66.38	20.29
66.6	34.162
66.82	16.27
67.04	5.962
67.26	8.06
67.48	17.307
67.7	14.581
67.92	9.405
68.14	23.594
68.36	17.854
68.58	14.118
68.8	11.969
69.02	4.28
69.24	1.593
69.46	22.376
69.68	23.733
69.9	21.048
70.12	0.061
70.34	4.15
70.56	4.708
70.78	8.671
71	8.68
71.22	12.8
71.44	7.503
71.66	13.826
71.88	4.085
72.1	21.215
72.32	15.665
72.54	17.68
72.76	17.345
72.98	10.713
73.2	19.763
73.42	0.495
73.64	31.587
73.86	2.142
74.08	20.945
74.3	14.324
74.52	0.744
74.74	2.504
74.96	8.689
75.18	21.164
75.4	12.218
75.62	16.772
75.84	6.732
76.06	8.198
76.28	9.15
76.5	0.929
76.72	10.341
76.94	1.418
77.16	5.953
77.38	0.864
77.6	4.87
77.82	12.939
78.04	20.014
78.26	18.406
78.48	1.755
78.7	17.795
78.92	15.573
79.14	10.616
79.36	25.284
79.58	12.1
79.8	12.98
80.02	11.339
80.24	11.338
80.46	13.128
80.68	11.819
80.9	10.594
81.12	15.139
81.34	18.331
81.56	19.08
81.78	14.252
82	26.873
82.22	10.446
82.44	14.445
82.66	20.788
82.88	14.861
83.1	2.678
83.32	15.961
83.54	29.553
83.76	12.349
83.98	3.869
84.2	5.385
84.42	14.664
84.64	21.6
84.86	9.388
85.08	12.382
85.3	23.181
85.52	22.17
85.74	4.83
85.96	25.651
86.18	23.445
86.4	19.294
86.62	9.29
86.84	17.227
87.06	1.55
87.28	8.813
87.5	7.497
87.72	27.969
87.94	23.367
88.16	16.291
88.38	8.686
88.6	19.786
88.82	14.261
89.04	16.823
89.26	12.861
89.48	8.219
89.7	19.29
89.92	5.664
