Measurement: Powder, Xray Data XY Processed
Mineral: Pickeringite
Rruff sample: R060108
Ideal chemistry: MgAl_2_(S^6+^O_4_)_4_22H_2_O
Locality: Tucumcari, New Mexico, USA
Source: University of Arizona Mineral Museum
Description: Colorless acicular aggregates
Diffraction sample description: Powder
Measured chemistry: (Mg_0.88_Mn_0.12_)_Σ=1_Al_2.00_(S_1.00_O_4_)_4_·22H_2_O
Cell parameters: a: 6.180(1) b: 24.268(4) c: 21.217(4) alpha: 90 beta: 100.31(1) gamma: 90 volume: 3130.9(6) crystal system: monoclinic
x	intensity
5	0
5.22	9.528
5.44	12.761
5.66	13.585
5.88	13.026
6.1	10.564
6.32	3.946
6.54	4.674
6.76	11.091
6.98	7.854
7.2	11.593
7.42	9.223
7.64	12.513
7.86	4.004
8.08	12.513
8.3	0.97
8.52	10.48
8.74	4.193
8.96	3.969
9.18	20.762
9.4	15.311
9.62	5.907
9.84	4.551
10.06	9.178
10.28	4.698
10.5	2.335
10.72	0.845
10.94	10.204
11.16	18.489
11.38	11.609
11.6	13.705
11.82	11.761
12.04	6.837
12.26	1.637
12.48	13.891
12.7	8.122
12.92	1.053
13.14	1.957
13.36	7.005
13.58	0.834
13.8	4.722
14.02	2.5
14.24	0.26
14.46	4.159
14.68	32.187
14.9	6.172
15.12	7.135
15.34	25.17
15.56	9.88
15.78	0.735
16	8.608
16.22	2.487
16.44	4.32
16.66	3.54
16.88	19.897
17.1	0.859
17.32	2.925
17.54	7.098
17.76	2.609
17.98	49.731
18.2	27.208
18.42	20.665
18.64	118.47
18.86	7.467
19.08	29.154
19.3	21.061
19.52	24.026
19.74	7.097
19.96	0.203
20.18	8.044
20.4	33.941
20.62	37.931
20.84	73.609
21.06	4.429
21.28	18.153
21.5	36.949
21.72	131.981
21.94	6.38
22.16	4.051
22.38	56.258
22.6	35.632
22.82	2.201
23.04	7.49
23.26	0.309
23.48	17.305
23.7	47.561
23.92	9.038
24.14	6.398
24.36	17.212
24.58	2.692
24.8	17.575
25.02	4.424
25.24	13.706
25.46	56.834
25.68	43.551
25.9	30.988
26.12	4.938
26.34	2.381
26.56	12.643
26.78	22.995
27	14.971
27.22	16.978
27.44	17.616
27.66	10.929
27.88	1.004
28.1	8.895
28.32	15.793
28.54	12.621
28.76	1.433
28.98	8.144
29.2	9.607
29.42	33.011
29.64	10.854
29.86	0.975
30.08	13.368
30.3	15.912
30.52	5.655
30.74	8.389
30.96	34.613
31.18	10.382
31.4	8.863
31.62	12.995
31.84	9.073
32.06	0
32.28	13.142
32.5	31.352
32.72	1.544
32.94	7.948
33.16	7.34
33.38	16.155
33.6	26.466
33.82	1.195
34.04	0.471
34.26	6.459
34.48	36.091
34.7	11.327
34.92	7.148
35.14	36.051
35.36	13.124
35.58	4.28
35.8	15.625
36.02	5.066
36.24	10.758
36.46	15.038
36.68	14.339
36.9	14.48
37.12	5.911
37.34	4.54
37.56	14.524
37.78	19.087
38	1.123
38.22	7.11
38.44	6.915
38.66	10.526
38.88	8.538
39.1	8.629
39.32	14.33
39.54	10.158
39.76	24.615
39.98	2.851
40.2	9.765
40.42	11.146
40.64	14.344
40.86	3.384
41.08	7.644
41.3	5.713
41.52	13.522
41.74	7.888
41.96	3.717
42.18	5.931
42.4	1.179
42.62	13.985
42.84	1.613
43.06	0.343
43.28	15.964
43.5	5.781
43.72	0.16
43.94	0.201
44.16	3.213
44.38	5.268
44.6	6.408
44.82	8.592
45.04	14.399
45.26	9.609
45.48	5.638
45.7	4.711
45.92	5.599
46.14	4.285
46.36	7.728
46.58	4.79
46.8	9.621
47.02	16.378
47.24	0.165
47.46	5.006
47.68	10.555
47.9	11.329
48.12	14.439
48.34	0.318
48.56	25.811
48.78	15.447
49	14.51
49.22	0.779
49.44	3.909
49.66	11.476
49.88	17.523
50.1	5.03
50.32	10.412
50.54	11.489
50.76	12.456
50.98	2.218
51.2	5.222
51.42	2.497
51.64	6.764
51.86	6.132
52.08	15.973
52.3	16.131
52.52	8.025
52.74	4.165
52.96	9.11
53.18	5.964
53.4	6.863
53.62	5.552
53.84	0.733
54.06	7.766
54.28	8.412
54.5	11.799
54.72	2.985
54.94	1.046
55.16	2.921
55.38	7.048
55.6	0.238
55.82	3.636
56.04	4.057
56.26	2.513
56.48	5.168
56.7	16.525
56.92	7.314
57.14	12.882
57.36	7.375
57.58	2.576
57.8	11.683
58.02	4.542
58.24	1.167
58.46	16.728
58.68	10.523
58.9	12.11
59.12	9.206
59.34	10.121
59.56	5.756
59.78	7.304
60	7.235
60.22	6.17
60.44	0.336
60.66	8.245
60.88	8.49
61.1	4.709
61.32	10.791
61.54	7.639
61.76	1.768
61.98	2.831
62.2	2.044
62.42	10
62.64	5.871
62.86	4.041
63.08	0.085
63.3	14.635
63.52	3.505
63.74	2.585
63.96	3.615
64.18	3.71
64.4	3.762
64.62	8.939
64.84	6.145
65.06	5.273
65.28	3.223
65.5	7.244
65.72	2.712
65.94	5.733
66.16	10.671
66.38	5.772
66.6	5.688
66.82	6.678
67.04	10.482
67.26	3.451
67.48	2.383
67.7	11.408
67.92	7.953
68.14	1.616
68.36	10.012
68.58	4.439
68.8	6.562
69.02	3.65
69.24	4.772
69.46	5.056
69.68	6.108
69.9	4.193
70.12	13.682
70.34	12.402
70.56	6.114
70.78	4.031
71	2.74
71.22	6.633
71.44	9.488
71.66	6.289
71.88	5.267
72.1	5.052
72.32	6.924
72.54	3.24
72.76	0.026
72.98	0.071
73.2	5.493
73.42	8.518
73.64	0.558
73.86	3.619
74.08	0.26
74.3	0.071
74.52	9.172
74.74	8.133
74.96	7.141
75.18	3.169
75.4	6.073
75.62	2.615
75.84	3.786
76.06	4.705
76.28	16.909
76.5	4.207
76.72	7.645
76.94	6.6
77.16	9.627
77.38	4.33
77.6	1.674
77.82	9.972
78.04	10.201
78.26	2.145
78.48	6.229
78.7	5.228
78.92	8.005
79.14	5.108
79.36	5.247
79.58	9.505
79.8	9.69
80.02	12.926
80.24	2.766
80.46	6.574
80.68	7.421
80.9	1.453
81.12	8.347
81.34	3.619
81.56	8.52
81.78	6.368
82	2.448
82.22	10.27
82.44	6.076
82.66	8.917
82.88	8.86
83.1	1.181
83.32	3.744
83.54	10.031
83.76	6.621
83.98	9.862
84.2	12.884
84.42	6.745
84.64	8.689
84.86	8.671
85.08	12.823
85.3	10.21
85.52	9.269
85.74	5.046
85.96	2.013
86.18	3.922
86.4	8.052
86.62	3.448
86.84	8.587
87.06	2.701
87.28	10.803
87.5	8.796
87.72	1.475
87.94	1.86
88.16	7.891
88.38	2.869
88.6	7.852
88.82	3.812
89.04	2.287
89.26	1.354
89.48	3.235
89.7	3.792
89.92	2.761
