Measurement: Powder, Xray Data XY Processed
Mineral: Picropharmacolite
Rruff sample: R050560
Ideal chemistry: Ca_4_Mg(As^5+^O_3_OH)_2_(As^5+^O_4_)_2_11H_2_O
Locality: Riechelsdorf, Saxony, Germany
Source: University of Arizona Mineral Museum
Description: Spray of white fibrous crystals
Diffraction sample description: Powder, using Mo radiation
Measured chemistry: Ca_4.00_(Mg_0.75_Al_0.16_[box]_0.09_)_Σ=1_((As_0.99_S_0.01_)_Σ=1_O_3_OH)_2_(As_1.00_O_4_)_2_·11H_2_O
x	intensity
6.03	0
6.18	6.11911
6.33	0.658188
6.48	10.2932
6.63	14.8223
6.78	12.5054
6.93	16.4156
7.08	37.9151
7.23	80.9562
7.38	131.904
7.53	156.96
7.68	180.539
7.83	138.15
7.98	97.4312
8.13	113.441
8.28	145.253
8.43	126.985
8.58	74.2199
8.73	59.1349
8.88	32.8364
9.03	31.192
9.18	61.3284
9.33	81.0038
9.48	83.3206
9.63	61.4063
9.78	32.8823
9.93	18.2312
10.08	41.5391
10.23	86.3653
10.38	91.7521
10.53	62.0202
10.68	67.3366
10.83	52.113
10.98	12.8759
11.13	2.92633
11.28	8.56043
11.43	42.9946
11.58	40.7776
11.73	47.5435
11.88	80.007
12.03	106.716
12.18	100.795
12.33	108.661
12.48	178.008
12.63	227.222
12.78	250.445
12.93	180.63
13.08	172.262
13.23	350.557
13.38	484.021
13.53	346.981
13.68	182.543
13.83	183.393
13.98	204.066
14.13	201.243
14.28	185.444
14.43	185.242
14.58	209.422
14.73	210.335
14.88	176.237
15.03	154.376
15.18	96.0443
15.33	49.057
15.48	40.4599
15.63	40.9458
15.78	47.9886
15.93	46.5093
16.08	58.0981
16.23	56.6078
16.38	42.532
16.53	45.8879
16.68	52.2498
16.83	29.023
16.98	11.1855
17.13	5.92743
17.28	18.1217
17.43	12.7746
17.58	6.57123
17.73	7.62225
17.88	7.3006
18.03	19.2877
18.18	13.0785
18.33	16.0775
18.48	38.857
18.63	33.3923
18.78	41.8456
18.93	28.2246
19.08	24.7743
19.23	33.3758
19.38	34.4321
19.53	33.0026
19.68	11.9176
19.83	10.3278
19.98	4.34671
20.13	12.2371
20.28	39.6553
20.43	63.1517
20.58	71.6545
20.73	51.6269
20.88	29.3341
21.03	22.9953
21.18	15.9543
21.33	28.2156
21.48	49.4998
21.63	65.1166
21.78	39.3026
21.93	43.4635
22.08	60.0854
22.23	77.8146
22.38	69.1594
22.53	27.5352
22.68	14.0183
22.83	25.3996
22.98	36.1699
23.13	38.2862
23.28	47.2264
23.43	54.4687
23.58	60.8398
23.73	42.4906
23.88	51.571
24.03	48.0101
24.18	51.5226
24.33	64.9763
24.48	65.1677
24.63	60.8549
24.78	47.3382
24.93	27.2185
25.08	14.9641
25.23	11.293
25.38	8.1044
25.53	15.8141
25.68	19.8311
25.83	33.1285
25.98	29.6303
26.13	21.0234
26.28	19.9786
26.43	33.6728
26.58	49.8296
26.73	66.0052
26.88	46.8812
27.03	22.3178
27.18	4.16208
27.33	11.4731
27.48	2.49774
27.63	0.339325
27.78	3.67694
27.93	4.42749
28.08	8.54315
28.23	20.7697
28.38	30.771
28.53	20.3177
28.68	21.2494
28.83	8.04224
28.98	12.1749
29.13	13.8096
29.28	11.8065
29.43	15.2877
29.58	17.1686
29.73	21.1086
29.88	1.35355
30.03	5.00488
30.18	1.52289
30.33	7.96417
30.48	11.8914
30.63	23.4196
30.78	28.1276
30.93	31.9513
31.08	31.3356
31.23	33.4936
31.38	28.3458
31.53	13.6165
31.68	13.8744
31.83	9.78815
31.98	13.9365
32.13	6.74789
32.28	1.53827
32.43	0.723175
32.58	7.68399
32.73	2.42816
32.88	12.5809
33.03	8.8241
33.18	5.64423
33.33	5.99255
33.48	8.77801
33.63	6.03805
33.78	11.0846
33.93	10.545
34.08	23.2
34.23	30.3738
34.38	38.373
34.53	27.2431
34.68	18.4075
34.83	13.6712
34.98	13.9997
35.13	10.6631
35.28	13.2865
35.43	9.6344
35.58	9.33441
35.73	13.5507
35.88	19.3187
36.03	10.9185
36.18	9.50885
36.33	7.00827
36.48	17.7465
36.63	13.2314
36.78	7.59638
36.93	20.4535
37.08	20.9984
37.23	16.8318
37.38	16.2779
37.53	10.2601
37.68	12.5128
37.83	12.3393
37.98	22.6025
38.13	18.1466
38.28	21.6337
38.43	11.6082
38.58	14.7226
38.73	6.58139
38.88	3.24683
39.03	7.22046
39.18	9.60367
39.33	4.55594
39.48	2.9444
39.63	4.14999
39.78	12.1941
39.93	4.92337
40.08	14.0669
40.23	5.42221
40.38	12.4401
40.53	3.49829
40.68	2.11359
40.83	0.462555
40.98	0.544739
41.13	6.41806
41.28	5.88095
41.43	8.91135
41.58	9.42084
41.73	9.00146
41.88	6.78067
42.03	1.82126
42.18	3.79849
42.33	1.92145
42.48	2.27972
42.63	6.08963
42.78	1.64587
42.93	0.880096
43.08	7.88773
43.23	10.2924
43.38	1.1141
43.53	3.78589
43.68	5.87393
43.83	9.48245
43.98	7.63748
44.13	12.855
44.28	8.2485
44.43	10.4349
44.58	6.9324
44.73	13.6172
44.88	16.9629
45.03	10.828
45.18	16.069
45.33	6.47073
45.48	6.28815
45.63	13.5196
45.78	8.13037
45.93	9.31848
46.08	6.14246
46.23	2.49121
46.38	1.07657
46.53	3.84656
46.68	3.25342
46.83	1.17798
46.98	9.56741
47.13	11.2298
47.28	11.2672
47.43	6.64313
47.58	15.0772
47.73	3.03458
47.88	8.89026
48.03	11.8991
48.18	3.44385
48.33	4.48056
48.48	3.95706
48.63	0.414185
48.78	0.882233
48.93	7.23618
49.08	4.76434
49.23	9.94281
49.38	11.5778
49.53	11.146
49.68	0.527557
49.83	2.95453
49.98	3.31018
50.13	4.5036
50.28	12.5344
50.43	8.99237
50.58	5.55545
50.73	11.6164
50.88	11.3003
51.03	4.95297
51.18	1.36853
51.33	3.69504
51.48	7.62277
51.63	10.9739
51.78	9.67502
51.93	4.93713
52.08	5.74741
52.23	10.9471
52.38	4.23715
52.53	10.7743
52.68	9.96256
52.83	10.4772
52.98	8.58511
53.13	7.74591
53.28	1.69583
53.43	2.56491
53.58	2.71652
53.73	8.45178
53.88	9.25574
54.03	12.3715
54.18	9.76663
54.33	5.4321
54.48	5.05508
54.63	16.2789
54.78	7.23755
54.93	8.91
55.08	16.1799
55.23	1.75641
55.38	1.78079
55.53	10.4532
55.68	11.3782
55.83	11.105
55.98	13.9334
56.13	2.72748
56.28	11.0545
56.43	0.026154
56.58	3.37979
56.73	4.23273
56.88	7.73489
57.03	8.24091
57.18	9.54706
57.33	11.625
57.48	11.0941
57.63	5.81222
57.78	3.50678
57.93	10.9486
58.08	5.69168
58.23	9.99832
58.38	10.5471
58.53	10.9176
58.68	9.61496
58.83	6.52295
58.98	3.55054
59.13	7.66165
59.28	16.4376
59.43	6.69409
59.58	17.8994
59.73	18.4142
59.88	1.08127
60.03	7.00403
60.18	3.52271
60.33	6.65839
60.48	3.98978
60.63	6.98077
60.78	2.53604
60.93	1.38348
61.08	2.24277
61.23	1.0863
61.38	4.1846
61.53	3.17374
61.68	9.12244
61.83	9.07407
61.98	8.24731
62.13	1.53802
62.28	7.78662
62.43	8.85263
62.58	3.28845
62.73	14.2475
62.88	7.17081
63.03	1.11691
63.18	4.78937
63.33	16.6544
63.48	7.14703
63.63	1.53653
63.78	8.83743
63.93	11.5948
64.08	9.14072
64.23	10.7691
64.38	1.09689
64.53	6.26562
64.68	10.8251
64.83	9.59427
64.98	6.71783
