Measurement: Powder, Xray Data XY Processed
Mineral: Piemontite
Rruff sample: R060905
Ideal chemistry: Ca_2_Mn^3+^Al_2_(Si_2_O_7_)(SiO_4_)O(OH)
Locality: Praborna mine, Aosta Valley, St. Marcel, Italy
Source: Michael Scott
Description: Elongated purple single crystals associated with albite and romeite, R060323
Diffraction sample description: Powder
Measured chemistry: (Ca_1.82_Mn^2+^_0.12_)_Σ=2_(Al_1.95_Mn^3+^_0.97_Fe^3+^_0.08_)_Σ=3_[Si_2.00_O_7_][Si_1.00_O_4_]O(OH) ; = lighter phase, and the darker phase is albite.
Cell parameters: a: 8.891(1) b: 5.6995(3) c: 10.228(2) alpha: 90 beta: 114.99(1) gamma: 90 volume: 469.72(9) crystal system: monoclinic
x	intensity
5	0
5.22	3.10197
5.44	14.5675
5.66	9.22368
5.88	8.47499
6.1	16.0991
6.32	16.6742
6.54	13.2107
6.76	2.18191
6.98	14.4884
7.2	1.47842
7.42	3.0792
7.64	0.149561
7.86	5.5244
8.08	2.19557
8.3	0.035416
8.52	0.406162
8.74	11.8516
8.96	6.29103
9.18	9.86662
9.4	4.4228
9.62	12.3917
9.84	12.7126
10.06	17.719
10.28	6.49659
10.5	10.762
10.72	11.5287
10.94	14.7311
11.16	24.8352
11.38	0.113995
11.6	2.04002
11.82	3.9606
12.04	8.15337
12.26	4.27907
12.48	0.796706
12.7	5.36409
12.92	3.29131
13.14	9.66847
13.36	12.7936
13.58	8.1157
13.8	11.1294
14.02	2.31044
14.24	1.62117
14.46	8.60197
14.68	9.75973
14.9	7.51848
15.12	4.78629
15.34	3.54443
15.56	4.59662
15.78	1.61434
16	8.51737
16.22	1.30201
16.44	8.10213
16.66	7.67497
16.88	10.4949
17.1	4.09342
17.32	9.7758
17.54	19.6828
17.76	2.51461
17.98	7.53321
18.2	2.17146
18.42	7.23802
18.64	0.394877
18.86	0.708593
19.08	23.2493
19.3	5.76384
19.52	6.02128
19.74	11.2553
19.96	9.02939
20.18	5.68558
20.4	12.0971
20.62	6.16977
20.84	8.8619
21.06	6.63014
21.28	10.2162
21.5	5.34158
21.72	0.28698
21.94	3.88019
22.16	13.4675
22.38	12.4885
22.6	5.24422
22.82	1.2063
23.04	2.66019
23.26	0.541418
23.48	13.847
23.7	0.112637
23.92	4.29899
24.14	0.636101
24.36	10.501
24.58	1.68297
24.8	8.79171
25.02	2.93477
25.24	9.213
25.46	45.1292
25.68	8.46481
25.9	21.0281
26.12	5.10967
26.34	11.5929
26.56	5.28421
26.78	0.893167
27	0.124918
27.22	5.66531
27.44	10.221
27.66	15.5805
27.88	38.8164
28.1	9.28593
28.32	17.0529
28.54	13.5639
28.76	6.58995
28.98	11.4429
29.2	12.1293
29.42	37.8292
29.64	6.57074
29.86	9.36364
30.08	0.946787
30.3	10.1777
30.52	80.1726
30.74	44.2828
30.96	13.4087
31.18	1.28683
31.4	63.4018
31.62	15.9077
31.84	7.29483
32.06	7.65919
32.28	4.14609
32.5	14.6939
32.72	8.89538
32.94	30.214
33.16	24.0769
33.38	48.9574
33.6	19.8058
33.82	3.41652
34.04	10.9866
34.26	12.6828
34.48	30.4439
34.7	1.54987
34.92	6.18013
35.14	34.981
35.36	14.0341
35.58	12.2511
35.8	1.25264
36.02	10.7535
36.24	9.53445
36.46	2.60624
36.68	7.8941
36.9	24.0867
37.12	22.1339
37.34	23.5726
37.56	5.78777
37.78	4.609
38	7.52204
38.22	12.6945
38.44	2.99579
38.66	15.6609
38.88	22.3828
39.1	13.9255
39.32	9.98045
39.54	9.37339
39.76	5.37164
39.98	9.53224
40.2	1.4508
40.42	7.4863
40.64	1.84983
40.86	10.7608
41.08	5.00331
41.3	12.0626
41.52	10.0968
41.74	25.5797
41.96	4.25304
42.18	12.6686
42.4	14.3623
42.62	15.3414
42.84	2.50145
43.06	5.86281
43.28	16.3873
43.5	6.79227
43.72	8.69629
43.94	1.22892
44.16	20.4579
44.38	13.7217
44.6	3.22777
44.82	2.36657
45.04	8.22831
45.26	6.25072
45.48	9.1754
45.7	5.97428
45.92	8.93093
46.14	7.0842
46.36	13.8096
46.58	1.46209
46.8	14.2401
47.02	9.88724
47.24	4.48914
47.46	9.78281
47.68	0.786491
47.9	11.0702
48.12	30.2191
48.34	9.32362
48.56	16.5633
48.78	19.0736
49	7.41229
49.22	11.0337
49.44	0.537722
49.66	10.7791
49.88	0.064547
50.1	20.0756
50.32	5.06368
50.54	11.2435
50.76	16.1209
50.98	9.29794
51.2	5.16785
51.42	10.0206
51.64	9.25719
51.86	5.1062
52.08	17.946
52.3	4.77924
52.52	11.7425
52.74	19.5984
52.96	0.712399
53.18	5.65149
53.4	5.43479
53.62	12.5945
53.84	5.90155
54.06	7.99211
54.28	13.8278
54.5	8.54641
54.72	1.22177
54.94	5.87062
55.16	7.32446
55.38	12.0258
55.6	9.77496
55.82	21.0957
56.04	19.1369
56.26	17.8462
56.48	17.1538
56.7	10.2227
56.92	0.473873
57.14	8.06643
57.36	0.50082
57.58	13.189
57.8	16.8751
58.02	10.6921
58.24	8.22563
58.46	10.4589
58.68	10.6789
58.9	5.85284
59.12	12.042
59.34	15.3387
59.56	18.1669
59.78	22.1292
60	1.14321
60.22	24.8894
60.44	0.132444
60.66	8.06842
60.88	7.1199
61.1	1.86367
61.32	7.21185
61.54	9.17222
61.76	0.723589
61.98	5.44748
62.2	5.92382
62.42	8.86945
62.64	3.53141
62.86	1.59305
63.08	4.67883
63.3	6.45517
63.52	21.6573
63.74	18.3056
63.96	8.101
64.18	12.8727
64.4	2.49617
64.62	3.79763
64.84	8.78263
65.06	13.5695
65.28	0.380262
65.5	12.0897
65.72	6.81679
65.94	3.50703
66.16	11.8401
66.38	4.21959
66.6	7.59945
66.82	13.04
67.04	4.7168
67.26	4.92924
67.48	7.32114
67.7	2.20716
67.92	24.5717
68.14	7.77065
68.36	1.08581
68.58	9.44601
68.8	2.34966
69.02	5.57466
69.24	8.52738
69.46	15.4456
69.68	8.93391
69.9	7.71676
70.12	11.2528
70.34	0.298285
70.56	9.66683
70.78	9.01848
71	2.13925
71.22	2.90598
71.44	7.03171
71.66	5.86762
71.88	4.66544
72.1	14.5681
72.32	5.70948
72.54	19.9537
72.76	10.6152
72.98	2.19287
73.2	10.7397
73.42	1.50899
73.64	2.71567
73.86	14.4497
74.08	4.4189
74.3	14.3043
74.52	8.22727
74.74	20.8094
74.96	0.641151
75.18	5.71328
75.4	14.7819
75.62	8.19994
75.84	0.801334
76.06	4.82291
76.28	8.07258
76.5	3.38407
76.72	9.76053
76.94	3.54956
77.16	6.61593
77.38	10.73
77.6	9.73445
77.82	1.95832
78.04	3.57507
78.26	8.08744
78.48	3.84041
78.7	13.7614
78.92	9.76952
79.14	4.5464
79.36	1.8584
79.58	4.8551
79.8	3.78882
80.02	8.00131
80.24	0.044415
80.46	7.14926
80.68	13.149
80.9	9.13502
81.12	7.43699
81.34	3.54102
81.56	14.5058
81.78	12.0411
82	4.19638
82.22	14.1561
82.44	8.9218
82.66	5.88978
82.88	12.733
83.1	5.80655
83.32	1.95654
83.54	6.82575
83.76	5.0253
83.98	1.52158
84.2	0.790895
84.42	6.73151
84.64	3.94278
84.86	10.0349
85.08	15.895
85.3	5.91467
85.52	1.94013
85.74	14.7614
85.96	2.6146
86.18	9.29791
86.4	3.73614
86.62	6.56951
86.84	10.4437
87.06	2.68288
87.28	4.70156
87.5	15.8139
87.72	9.9129
87.94	7.01102
88.16	5.27973
88.38	17.5557
88.6	13.8317
88.82	16.9607
89.04	12.3988
89.26	5.44118
89.48	12.9395
89.7	23.4683
89.92	0.129549
