Measurement: Powder, Xray Data XY Processed
Mineral: Platinum
Rruff sample: R060750
Ideal chemistry: Pt
Locality: Bear Creek, near Nyak, Alaska, USA
Source: Michael Scott
Description: Silver metallic water-worn nuggets
Diffraction sample description: Powder, using Mo radiation
Cell parameters: a: 3.883(3) b: 3.883(3) c: 3.883(3) alpha: 90 beta: 90 gamma: 90 volume: 58.6(1) crystal system: cubic
x	intensity
5.75	0
5.83	4.1413
5.91	10.2785
5.99	12.0493
6.07	2.04554
6.15	5.24166
6.23	7.76302
6.31	8.45824
6.39	3.76207
6.47	12.6528
6.55	6.33694
6.63	7.23989
6.71	7.69678
6.79	8.05691
6.87	3.40373
6.95	2.87471
7.03	2.59108
7.11	4.1768
7.19	8.81557
7.27	5.32574
7.35	6.68004
7.43	2.91371
7.51	2.03712
7.59	0.005858
7.67	0.594373
7.75	0.103568
7.83	0.66467
7.91	3.60542
7.99	6.20012
8.07	2.83371
8.15	4.06468
8.23	0.019834
8.31	1.64297
8.39	4.95351
8.47	2.42853
8.55	4.32977
8.63	0.881266
8.71	5.25167
8.79	0.758611
8.87	4.24147
8.95	2.78482
9.03	4.69894
9.11	0.515537
9.19	7.2461
9.27	7.10102
9.35	6.55695
9.43	1.66567
9.51	6.07897
9.59	6.87435
9.67	5.10341
9.75	0.245938
9.83	4.10925
9.91	0.495538
9.99	0.213166
10.07	2.11018
10.15	3.04527
10.23	0.450274
10.31	1.1303
10.39	1.41751
10.47	2.80662
10.55	1.33145
10.63	3.55835
10.71	3.89531
10.79	2.7147
10.87	0.171837
10.95	1.04962
11.03	2.1001
11.11	0.398826
11.19	1.24952
11.27	1.73469
11.35	2.65505
11.43	3.94419
11.51	1.50123
11.59	0.484438
11.67	2.84833
11.75	0.634815
11.83	1.02512
11.91	3.24788
11.99	4.53374
12.07	1.92339
12.15	2.66129
12.23	5.74625
12.31	2.07395
12.39	0.826147
12.47	5.11858
12.55	1.35171
12.63	0.899296
12.71	1.00516
12.79	3.7235
12.87	1.15322
12.95	1.06827
13.03	0.332802
13.11	0.056886
13.19	3.33466
13.27	1.57227
13.35	1.12702
13.43	2.84768
13.51	4.44545
13.59	1.35825
13.67	0.791757
13.75	1.58609
13.83	3.47354
13.91	1.43108
13.99	1.90938
14.07	0.223687
14.15	2.84559
14.23	2.6669
14.31	2.94659
14.39	3.45619
14.47	3.92946
14.55	3.77581
14.63	2.38259
14.71	3.62652
14.79	6.19673
14.87	6.80908
14.95	5.12871
15.03	10.3157
15.11	7.27027
15.19	5.64679
15.27	4.50742
15.35	7.27112
15.43	5.23685
15.51	2.601
15.59	2.4285
15.67	2.35425
15.75	1.39442
15.83	1.08373
15.91	2.90752
15.99	1.59826
16.07	1.4391
16.15	2.22444
16.23	2.00199
16.31	3.07603
16.39	1.43059
16.47	0.102677
16.55	0.032715
16.63	0.442411
16.71	0.691182
16.79	0.396204
16.87	1.62494
16.95	2.04184
17.03	1.16879
17.11	0.223314
17.19	0.021256
17.27	3.6722
17.35	1.75082
17.43	2.20918
17.51	3.57327
17.59	4.31067
17.67	3.88028
17.75	3.81659
17.83	5.4296
17.91	8.24135
17.99	11.7618
18.07	26.0937
18.15	62.0425
18.23	112.328
18.31	149.184
18.39	157.965
18.47	118.35
18.55	67.293
18.63	32.6231
18.71	16.5933
18.79	7.92839
18.87	5.62979
18.95	3.66463
19.03	2.05289
19.11	2.69825
19.19	4.62128
19.27	2.31535
19.35	3.4105
19.43	1.549
19.51	0.554545
19.59	1.15518
19.67	0.797671
19.75	0.447281
19.83	0.434729
19.91	1.68146
19.99	1.07036
20.07	0.039273
20.15	1.72815
20.23	1.45156
20.31	1.57742
20.39	2.22683
20.47	0.183359
20.55	2.49034
20.63	4.44253
20.71	5.4708
20.79	10.8204
20.87	20.1981
20.95	41.2585
21.03	63.7601
21.11	84.6007
21.19	84.4596
21.27	66.334
21.35	42.3925
21.43	25.6213
21.51	13.2785
21.59	7.24996
21.67	6.47184
21.75	2.92877
21.83	2.84292
21.91	1.28257
21.99	1.43822
22.07	0.490261
22.15	0.153158
22.23	2.24137
22.31	2.22434
22.39	0.930647
22.47	1.18373
22.55	1.64199
22.63	1.12433
22.71	0.616802
22.79	1.86787
22.87	0.610233
22.95	3.16657
23.03	0.206311
23.11	0.460102
23.19	0.372198
23.27	0.049587
23.35	1.97759
23.43	3.07703
23.51	2.24785
23.59	3.17865
23.67	5.17449
23.75	3.6644
23.83	3.57804
23.91	3.33703
23.99	3.31409
24.07	0.171292
24.15	0.127932
24.23	4.49745
24.31	2.8188
24.39	0.273215
24.47	1.87076
24.55	2.9504
24.63	2.14993
24.71	0.379372
24.79	0.996706
24.87	2.35122
24.95	0.088451
25.03	0.294596
25.11	0.979104
25.19	4.28414
25.27	3.23376
25.35	0.140263
25.43	2.71151
25.51	2.06061
25.59	1.16984
25.67	4.37731
25.75	1.26958
25.83	0.972681
25.91	1.53901
25.99	2.535
26.07	2.62606
26.15	3.52121
26.23	3.33484
26.31	7.39145
26.39	3.83636
26.47	3.93678
26.55	0.647256
26.63	0.178596
26.71	0.104022
26.79	2.59912
26.87	2.69008
26.95	0.664821
27.03	3.30567
27.11	2.23075
27.19	2.71491
27.27	2.71982
27.35	0.908503
27.43	0.907063
27.51	0.223282
27.59	2.08114
27.67	1.0049
27.75	0.80932
27.83	0.139427
27.91	0.449458
27.99	0.255948
28.07	0.370342
28.15	1.28459
28.23	0.364605
28.31	0.25076
28.39	1.02824
28.47	3.59401
28.55	3.41052
28.63	0.277651
28.71	0.772453
28.79	2.75209
28.87	0.914131
28.95	0.372408
29.03	2.50341
29.11	1.04687
29.19	2.4761
29.27	0.403143
29.35	0.051435
29.43	2.23468
29.51	2.65781
29.59	6.26751
29.67	11.6615
29.75	10.6072
29.83	12.7338
29.91	36.5467
29.99	70.8044
30.07	97.7133
30.15	100.878
30.23	98.7585
30.31	80.7338
30.39	59.3845
30.47	34.6716
30.55	13.4014
30.63	11.7281
30.71	5.90965
30.79	6.15285
30.87	1.33551
30.95	4.65869
31.03	4.94611
31.11	8.26393
31.19	0.39172
31.27	0.173441
31.35	2.63402
31.43	2.35322
31.51	0.582288
31.59	0.831426
31.67	5.10142
31.75	2.21707
31.83	5.82921
31.91	1.7313
31.99	5.73706
32.07	4.0805
32.15	6.84759
32.23	6.53447
32.31	7.5804
32.39	9.55592
32.47	7.03881
32.55	7.56173
32.63	7.01601
32.71	7.94695
32.79	7.72029
32.87	9.37157
32.95	6.98031
33.03	3.51963
33.11	6.20421
33.19	5.22358
33.27	0.269707
33.35	2.37452
33.43	2.11207
33.51	2.04633
33.59	2.97813
33.67	0.850093
33.75	2.14999
33.83	0.089705
33.91	1.94864
33.99	1.15553
34.07	6.21751
34.15	2.20398
34.23	5.61203
34.31	1.29168
34.39	0.222775
34.47	0.687558
34.55	0.02968
34.63	0.580253
34.71	0.706427
34.79	0.831117
34.87	1.03436
34.95	0.042447
35.03	0.346418
35.11	9.13437
35.19	18.9651
35.27	28.1945
35.35	43.6336
35.43	45.4701
35.51	33.4273
35.59	7.64758
