Measurement: Powder, Xray Data XY Processed
Mineral: Plombierite
Rruff sample: R070162
Ideal chemistry: Ca_5_Si_6_O_16_(OH)_2_7H_2_O
Locality: Crestmore, Riverside County, California, USA
Source: James Shigley
Description: Matted white fibrous aggregate with calcite
Diffraction sample description: Powder
x	intensity
5	0
5.22	2.76646
5.44	11.1423
5.66	10.6537
5.88	4.03125
6.1	113.986
6.32	1446.23
6.54	94.8914
6.76	27.0962
6.98	26.6349
7.2	22.8993
7.42	6.9089
7.64	9.00998
7.86	4.44709
8.08	15.8032
8.3	1.86361
8.52	19.0814
8.74	3.63673
8.96	11.1596
9.18	13.516
9.4	0.980494
9.62	7.47704
9.84	9.23715
10.06	4.87484
10.28	1.08181
10.5	5.33913
10.72	10.0377
10.94	4.59322
11.16	18.866
11.38	0.927868
11.6	10.5289
11.82	7.79317
12.04	2.13398
12.26	11.3045
12.48	2.45099
12.7	14.6353
12.92	0.44673
13.14	8.03719
13.36	5.23106
13.58	0.249821
13.8	9.62321
14.02	5.52076
14.24	9.62597
14.46	8.85881
14.68	11.5656
14.9	10.1617
15.12	10.7163
15.34	6.78298
15.56	3.32947
15.78	18.6444
16	42.3398
16.22	17.3274
16.44	4.35807
16.66	5.79055
16.88	9.09798
17.1	10.961
17.32	5.71556
17.54	11.8245
17.76	7.39372
17.98	6.14516
18.2	1.8713
18.42	11.048
18.64	13.0471
18.86	10.9991
19.08	62.4831
19.3	7.87853
19.52	6.13267
19.74	18.8392
19.96	2.0214
20.18	9.45208
20.4	13.1949
20.62	15.7853
20.84	6.12526
21.06	13.1406
21.28	6.42795
21.5	6.1298
21.72	11.0994
21.94	9.93633
22.16	13.6614
22.38	5.44074
22.6	5.22496
22.82	6.52426
23.04	6.20623
23.26	1.8688
23.48	22.7947
23.7	9.22927
23.92	13.1406
24.14	2.87657
24.36	16.1443
24.58	1.22076
24.8	11.9806
25.02	6.88418
25.24	14.6333
25.46	14.9769
25.68	3.38193
25.9	11.5056
26.12	13.1972
26.34	4.57468
26.56	3.91962
26.78	10.686
27	13.4716
27.22	27.0887
27.44	50.1135
27.66	22.3216
27.88	27.5447
28.1	6.12426
28.32	3.87026
28.54	5.18712
28.76	3.23825
28.98	47.5209
29.2	19.0198
29.42	93.2779
29.64	114.967
29.86	159.536
30.08	9.93788
30.3	21.0343
30.52	20.6343
30.74	26.0386
30.96	12.583
31.18	3.12026
31.4	5.61768
31.62	4.50399
31.84	46.6859
32.06	47.5736
32.28	52.7513
32.5	30.1043
32.72	7.20718
32.94	29.3783
33.16	37.7142
33.38	6.13085
33.6	15.6783
33.82	21.3552
34.04	5.09827
34.26	0.622871
34.48	0.181719
34.7	4.46513
34.92	2.36635
35.14	11.6875
35.36	14.2226
35.58	34.2562
35.8	2.12083
36.02	51.3516
36.24	9.5545
36.46	3.02563
36.68	6.61848
36.9	5.48479
37.12	8.91129
37.34	12.2429
37.56	16.2684
37.78	3.07353
38	4.57017
38.22	12.157
38.44	0.097584
38.66	47.7383
38.88	16.0453
39.1	5.65492
39.32	1.96588
39.54	25.1321
39.76	2.03255
39.98	14.0196
40.2	1.68778
40.42	25.6836
40.64	1.76547
40.86	13.9365
41.08	3.05629
41.3	5.7929
41.52	11.7012
41.74	6.49055
41.96	15.2143
42.18	4.94095
42.4	2.26398
42.62	19.8607
42.84	13.7428
43.06	4.78874
43.28	0.503752
43.5	19.9924
43.72	19.3082
43.94	8.65758
44.16	4.16115
44.38	10.5808
44.6	2.55575
44.82	3.98935
45.04	22.4566
45.26	5.15231
45.48	15.4742
45.7	2.77041
45.92	7.32423
46.14	10.3577
46.36	10.8986
46.58	0.981077
46.8	16.7596
47.02	8.27965
47.24	13.5564
47.46	6.56097
47.68	2.60795
47.9	6.45629
48.12	55.7824
48.34	10.9982
48.56	7.40038
48.78	13.0203
49	8.83456
49.22	2.18871
49.44	5.83784
49.66	3.49402
49.88	1.97592
50.1	8.24976
50.32	14.1934
50.54	12.1062
50.76	11.2393
50.98	7.00496
51.2	11.3504
51.42	10.8854
51.64	12.9723
51.86	18.7709
52.08	2.27809
52.3	7.54106
52.52	6.67608
52.74	0.994755
52.96	6.02876
53.18	7.17505
53.4	2.25161
53.62	10.5605
53.84	10.2509
54.06	4.30252
54.28	10.87
54.5	5.12825
54.72	11.8438
54.94	5.60821
55.16	19.5339
55.38	14.5621
55.6	6.41988
55.82	4.08283
56.04	5.38235
56.26	6.50826
56.48	1.6383
56.7	5.05648
56.92	3.75048
57.14	7.72163
57.36	10.9418
57.58	8.87513
57.8	6.91744
58.02	5.02626
58.24	8.74931
58.46	11.6103
58.68	4.67024
58.9	3.9641
59.12	5.59853
59.34	12.7585
59.56	1.95238
59.78	7.17637
60	2.64477
60.22	12.2365
60.44	5.93359
60.66	6.01443
60.88	15.5036
61.1	5.66886
61.32	1.96457
61.54	14.3016
61.76	6.89266
61.98	6.86702
62.2	5.86666
62.42	7.77109
62.64	12.4771
62.86	7.94299
63.08	9.10372
63.3	12.854
63.52	6.7408
63.74	2.76181
63.96	6.53181
64.18	6.14051
64.4	6.73941
64.62	6.94534
64.84	6.85885
65.06	7.87386
65.28	12.9123
65.5	1.80859
65.72	11.8068
65.94	2.92067
66.16	9.90589
66.38	5.98806
66.6	11.9635
66.82	2.74372
67.04	4.0486
67.26	10.0946
67.48	2.28323
67.7	13.4362
67.92	9.35845
68.14	4.47498
68.36	3.37574
68.58	8.38168
68.8	5.49955
69.02	9.66654
69.24	2.64414
69.46	9.25156
69.68	9.16091
69.9	9.19299
70.12	10.1754
70.34	8.21274
70.56	3.29764
70.78	6.43055
71	0.872803
71.22	1.85766
71.44	13.4095
71.66	10.4774
71.88	8.59888
72.1	9.70724
72.32	11.0337
72.54	13.2057
72.76	1.24617
72.98	12.4357
73.2	0.59171
73.42	1.19627
73.64	9.115
73.86	5.15892
74.08	0.766664
74.3	7.21058
74.52	7.12055
74.74	6.86157
74.96	1.83078
75.18	9.83996
75.4	3.49492
75.62	1.37253
75.84	13.3752
76.06	11.6817
76.28	7.35963
76.5	3.40165
76.72	6.32171
76.94	11.3092
77.16	12.0705
77.38	16.0905
77.6	1.23432
77.82	8.74337
78.04	3.68751
78.26	7.98399
78.48	2.83456
78.7	2.28173
78.92	3.65743
79.14	0.463559
79.36	8.83105
79.58	5.8091
79.8	3.99729
80.02	6.0026
80.24	8.70083
80.46	2.58437
80.68	6.37351
80.9	11.4528
81.12	7.44767
81.34	4.37251
81.56	7.31622
81.78	15.179
82	4.21696
82.22	7.37129
82.44	6.27172
82.66	7.63306
82.88	5.65981
83.1	6.56542
83.32	6.71234
83.54	8.38072
83.76	1.50164
83.98	7.38077
84.2	5.30469
84.42	7.26491
84.64	5.93266
84.86	7.96801
85.08	4.55545
85.3	5.69415
85.52	2.64195
85.74	6.5064
85.96	5.6363
86.18	0.54746
86.4	0.359333
86.62	5.90223
86.84	3.95218
87.06	8.21314
87.28	5.37235
87.5	4.53802
87.72	7.49876
87.94	13.6808
88.16	8.74403
88.38	2.99062
88.6	8.12985
88.82	8.20307
89.04	8.29299
89.26	8.03356
89.48	8.17322
89.7	2.51639
89.92	2.25672
