Measurement: Powder, Xray Data XY Processed
Mineral: Plumbogummite
Rruff sample: R050458
Ideal chemistry: Pb^2+^Al_3_(PO_4_)(PO_3_OH)(OH)_6_
Locality: Cornwall, England
Source: University of Arizona Mineral Museum
Description: Grayish blue botryoidal crust associated with yellow-green pyromorphite
Diffraction sample description: Powder
Measured chemistry: Pb_1.00_Al_3.00_((P_0.81_As_0.19_)_Î£=1_O_4_)(P_1.00_O_3_OH)(OH)_6_
Cell parameters: a: 7.0131(1) b: 7.0131(1) c: 16.7241(4) alpha: 90 beta: 90 gamma: 120 volume: 712.35(2) crystal system: hexagonal
x	intensity
5	0
5.22	8.80959
5.44	12.3534
5.66	15.8814
5.88	11.0847
6.1	2.53012
6.32	17.6157
6.54	10.4745
6.76	15.0155
6.98	7.44647
7.2	13.5989
7.42	15.4749
7.64	7.61154
7.86	15.4405
8.08	16.5963
8.3	3.17876
8.52	2.55925
8.74	15.0989
8.96	12.7207
9.18	12.7654
9.4	7.70898
9.62	12.9569
9.84	4.20708
10.06	10.4231
10.28	5.62729
10.5	5.93509
10.72	7.36599
10.94	12.412
11.16	11.8733
11.38	2.08713
11.6	8.33589
11.82	13.8524
12.04	3.20478
12.26	15.5685
12.48	3.76155
12.7	8.67258
12.92	6.17697
13.14	2.84483
13.36	5.41699
13.58	8.30834
13.8	18.1578
14.02	17.3705
14.24	6.83813
14.46	2.13802
14.68	12.9731
14.9	9.1278
15.12	30.976
15.34	80.4425
15.56	487.39
15.78	50.484
16	27.1617
16.22	5.96121
16.44	10.5085
16.66	11.2423
16.88	6.59857
17.1	2.96071
17.32	13.4945
17.54	26.8139
17.76	15.5667
17.98	62.809
18.2	16.4101
18.42	8.23605
18.64	4.70792
18.86	13.9103
19.08	12.4427
19.3	6.80772
19.52	4.11975
19.74	6.22716
19.96	5.56202
20.18	6.86681
20.4	15.1128
20.62	17.8051
20.84	20.3426
21.06	4.70951
21.28	13.9561
21.5	7.98346
21.72	0.141186
21.94	11.3162
22.16	2.54652
22.38	8.52335
22.6	4.48131
22.82	15.3945
23.04	10.7379
23.26	0.767521
23.48	7.28808
23.7	10.7074
23.92	1.58923
24.14	6.80431
24.36	3.92485
24.58	9.91514
24.8	10.8009
25.02	15.3648
25.24	76.4859
25.46	343.646
25.68	21.5167
25.9	114.913
26.12	17.598
26.34	10.6849
26.56	5.1302
26.78	21.1057
27	9.51341
27.22	0.882412
27.44	13.9976
27.66	6.96745
27.88	3.95653
28.1	25.5284
28.32	16.7279
28.54	2.60931
28.76	9.36768
28.98	9.78469
29.2	14.0466
29.42	0.63113
29.64	21.5036
29.86	45.026
30.08	858.956
30.3	62.5945
30.52	34.78
30.74	8.10439
30.96	17.4499
31.18	7.09053
31.4	52.0897
31.62	6.9527
31.84	2.03754
32.06	96.8101
32.28	17.1191
32.5	5.01462
32.72	5.11716
32.94	4.83638
33.16	4.04251
33.38	15.4257
33.6	11.0626
33.82	2.91788
34.04	0.017586
34.26	0.103401
34.48	6.61996
34.7	10.8659
34.92	3.02986
35.14	9.83853
35.36	0.114395
35.58	8.59277
35.8	7.3246
36.02	6.39394
36.24	13.3324
36.46	33.0958
36.68	22.5735
36.9	21.9222
37.12	9.20108
37.34	8.18908
37.56	10.7854
37.78	18.5508
38	17.7306
38.22	0.285559
38.44	15.8626
38.66	9.6642
38.88	6.56607
39.1	4.11208
39.32	14.5319
39.54	51.5337
39.76	31.0436
39.98	28.4791
40.2	37.877
40.42	52.9145
40.64	174.207
40.86	58.8365
41.08	26.355
41.3	63.2647
41.52	7.14895
41.74	3.30458
41.96	0.387854
42.18	4.33806
42.4	9.13439
42.62	4.18468
42.84	9.38414
43.06	9.63561
43.28	0.959885
43.5	12.7192
43.72	11.5977
43.94	8.64611
44.16	9.56035
44.38	0.442812
44.6	14.4683
44.82	21.5602
45.04	33.3549
45.26	18.2174
45.48	6.99991
45.7	3.19612
45.92	13.8172
46.14	0.191374
46.36	9.20926
46.58	5.11574
46.8	5.09938
47.02	12.0089
47.24	5.90107
47.46	8.80777
47.68	67.4618
47.9	81.0654
48.12	46.6512
48.34	12.8413
48.56	12.4416
48.78	5.00586
49	6.09328
49.22	6.71244
49.44	15.3137
49.66	5.54028
49.88	5.16384
50.1	4.49585
50.32	11.8525
50.54	9.49656
50.76	16.272
50.98	11.5461
51.2	15.0494
51.42	24.3946
51.64	3.15611
51.86	22.274
52.08	115.223
52.3	55.0358
52.52	1.17289
52.74	4.09286
52.96	29.6819
53.18	13.1637
53.4	0.64958
53.62	13.7462
53.84	7.78231
54.06	4.36204
54.28	3.22174
54.5	11.0754
54.72	30.7838
54.94	22.2553
55.16	9.14711
55.38	8.89013
55.6	23.5431
55.82	15.4931
56.04	19.6694
56.26	15.0147
56.48	8.53755
56.7	2.2641
56.92	8.9545
57.14	14.5541
57.36	14.1302
57.58	23.0216
57.8	8.4368
58.02	9.769
58.24	7.16171
58.46	9.42531
58.68	18.5578
58.9	3.78694
59.12	10.5264
59.34	1.54128
59.56	10.3689
59.78	8.62676
60	7.3126
60.22	1.17903
60.44	4.42534
60.66	3.69288
60.88	1.34606
61.1	7.06253
61.32	1.29445
61.54	21.6587
61.76	22.227
61.98	18.9698
62.2	14.4257
62.42	8.88907
62.64	18.8434
62.86	23.4767
63.08	4.07923
63.3	10.6943
63.52	14.9173
63.74	8.92972
63.96	13.6864
64.18	9.35591
64.4	4.98962
64.62	6.53221
64.84	5.05962
65.06	13.2158
65.28	24.6824
65.5	13.6358
65.72	5.5591
65.94	13.3068
66.16	4.73019
66.38	14.6417
66.6	2.46916
66.82	3.22971
67.04	1.03749
67.26	8.70004
67.48	1.4406
67.7	7.99596
67.92	11.0448
68.14	10.8932
68.36	0.491192
68.58	12.7378
68.8	14.9712
69.02	0.518667
69.24	17.1384
69.46	6.63227
69.68	11.1584
69.9	0.424377
70.12	2.49625
70.34	9.48456
70.56	5.04173
70.78	6.14938
71	8.54258
71.22	25.5018
71.44	7.4134
71.66	8.25096
71.88	3.92087
72.1	3.74856
72.32	17.5769
72.54	1.41666
72.76	5.47489
72.98	25.3038
73.2	20.0286
73.42	20.506
73.64	14.2624
73.86	0.880661
74.08	10.0398
74.3	5.07731
74.52	14.0597
74.74	14.6103
74.96	3.86625
75.18	3.35255
75.4	10.7509
75.62	9.49792
75.84	4.93252
76.06	11.4632
76.28	6.0141
76.5	7.23199
76.72	2.98267
76.94	12.1066
77.16	4.8717
77.38	4.9071
77.6	11.3926
77.82	17.017
78.04	2.55002
78.26	3.26547
78.48	7.58075
78.7	4.00161
78.92	17.6122
79.14	8.12271
79.36	4.996
79.58	17.7984
79.8	3.63412
80.02	10.585
80.24	4.05681
80.46	6.41525
80.68	5.49051
80.9	5.03329
81.12	4.29019
81.34	1.41851
81.56	8.46884
81.78	4.91721
82	10.0896
82.22	5.48369
82.44	24.8204
82.66	16.3673
82.88	3.27762
83.1	14.2642
83.32	2.98616
83.54	5.93612
83.76	4.8592
83.98	0.819269
84.2	4.68407
84.42	4.03468
84.64	11.7881
84.86	15.7706
85.08	10.3793
85.3	10.3339
85.52	8.43977
85.74	6.46465
85.96	9.57651
86.18	4.63343
86.4	15.8287
86.62	17.8036
86.84	12.5758
87.06	2.77649
87.28	11.0393
87.5	0.471012
87.72	10.8602
87.94	2.09335
88.16	16.1486
88.38	15.2111
88.6	10.3768
88.82	10.0634
89.04	5.19679
89.26	2.94659
89.48	3.61234
89.7	3.26138
89.92	6.89507
