Measurement: Powder, Xray Data XY Processed
Mineral: Polylithionite
Rruff sample: R060225
Ideal chemistry: KLi_2_AlSi_4_O_10_F_2_
Locality: Mont Saint-Hilaire, Rouville County, Quebec, Canada
Source: Royal Ontario Museum
Description: Tan colored hexagonal shaped mica
Diffraction sample description: Powder
Measured chemistry: (K_0.95_[box]_0.05_)_Σ=1_(Li_1.95_Mg_0.04_Mn_0.01_)_Σ=2_(Al_0.97_Fe^3+^_0.03_)_Σ=1_Si_4.00_O_10_(F_1.40_(OH)_0.60_)_Σ=2_
Cell parameters: a: 5.1962(6) b: 8.970(1) c: 10.0561(4) alpha: 90 beta: 100.449(7) gamma: 90 volume: 460.93(6) crystal system: monoclinic
x	intensity
5	0
5.22	10.197
5.44	19.625
5.66	1.109
5.88	14.826
6.1	13.815
6.32	9.83
6.54	12.329
6.76	12.391
6.98	11.104
7.2	18.839
7.42	0.554
7.64	3.079
7.86	6.443
8.08	12.933
8.3	1.199
8.52	16.374
8.74	17.82
8.96	173.359
9.18	21.802
9.4	8.13
9.62	9.799
9.84	4.476
10.06	0.763
10.28	10.716
10.5	11.279
10.72	1.821
10.94	9.14
11.16	6.252
11.38	11.346
11.6	7.362
11.82	3.483
12.04	9.244
12.26	3.886
12.48	10.71
12.7	13.009
12.92	3.931
13.14	6.888
13.36	0.123
13.58	6.319
13.8	0.433
14.02	2.826
14.24	6.995
14.46	1.269
14.68	5.839
14.9	4.175
15.12	6.975
15.34	8.151
15.56	5.914
15.78	9.873
16	6.849
16.22	8.408
16.44	7.97
16.66	3.579
16.88	4.21
17.1	4.613
17.32	6.28
17.54	4.119
17.76	9.282
17.98	327.177
18.2	26.093
18.42	15.018
18.64	5.454
18.86	7.556
19.08	2.764
19.3	9.88
19.52	6.02
19.74	5.991
19.96	10.241
20.18	2.28
20.4	10.353
20.62	13.473
20.84	4.523
21.06	3.298
21.28	7.477
21.5	2.652
21.72	10.697
21.94	5.715
22.16	7.603
22.38	10.117
22.6	2.345
22.82	5.68
23.04	6.538
23.26	16.314
23.48	10.082
23.7	10.704
23.92	3.15
24.14	2.235
24.36	15.093
24.58	10.723
24.8	48.211
25.02	3.63
25.24	7
25.46	12.979
25.68	29.665
25.9	12.534
26.12	1.509
26.34	5.579
26.56	9.49
26.78	29.522
27	78.383
27.22	51.019
27.44	8.171
27.66	2.42
27.88	10.469
28.1	7.746
28.32	0.896
28.54	4.993
28.76	10.465
28.98	37.671
29.2	68.44
29.42	9.873
29.64	8.513
29.86	3.412
30.08	11.3
30.3	8.178
30.52	8.119
30.74	4.311
30.96	2.563
31.18	50.434
31.4	14.354
31.62	15.826
31.84	5.315
32.06	1.854
32.28	5.235
32.5	11.461
32.72	7.545
32.94	2.537
33.16	4.443
33.38	0.346
33.6	9.867
33.82	35.445
34.04	8.905
34.26	1.875
34.48	9.601
34.7	9.393
34.92	23.61
35.14	45.576
35.36	25.553
35.58	7.332
35.8	1.718
36.02	2.854
36.24	4.27
36.46	18.516
36.68	12.629
36.9	11.732
37.12	6.33
37.34	6.328
37.56	10.405
37.78	27.618
38	16.034
38.22	16.23
38.44	0.235
38.66	8.535
38.88	3.967
39.1	3.201
39.32	4.576
39.54	2.759
39.76	2.897
39.98	6.076
40.2	14.213
40.42	5.083
40.64	15.205
40.86	13.008
41.08	3.43
41.3	4.018
41.52	6.701
41.74	6.39
41.96	10.072
42.18	9.77
42.4	6.428
42.62	21.051
42.84	9.144
43.06	6.957
43.28	34.783
43.5	30.127
43.72	12.228
43.94	5.486
44.16	0.609
44.38	0.688
44.6	6.742
44.82	5.756
45.04	6.75
45.26	4.386
45.48	1.129
45.7	19.254
45.92	165.96
46.14	23.182
46.36	8.362
46.58	8.648
46.8	2.29
47.02	3.121
47.24	7.838
47.46	16.378
47.68	7.915
47.9	4.406
48.12	2.6
48.34	10.909
48.56	11.145
48.78	5.375
49	9.695
49.22	3.835
49.44	4.909
49.66	0.748
49.88	2.678
50.1	4.561
50.32	5.891
50.54	4.893
50.76	8.749
50.98	3.667
51.2	1.425
51.42	8.064
51.64	0.218
51.86	6.482
52.08	4.196
52.3	2.975
52.52	15.622
52.74	7.112
52.96	8.277
53.18	12.506
53.4	6.414
53.62	15.542
53.84	3.886
54.06	9.423
54.28	6.735
54.5	0.664
54.72	2.418
54.94	1.427
55.16	0.884
55.38	4.355
55.6	1.739
55.82	17.683
56.04	20.089
56.26	9.445
56.48	13.685
56.7	4.2
56.92	13.055
57.14	13.234
57.36	11.594
57.58	27.815
57.8	11.51
58.02	12.089
58.24	3.519
58.46	8.964
58.68	9.565
58.9	2.005
59.12	2.407
59.34	3.681
59.56	10.723
59.78	0.802
60	12.931
60.22	7.465
60.44	0.99
60.66	15.614
60.88	6.449
61.1	3.068
61.32	9.971
61.54	2.001
61.76	17.292
61.98	6.056
62.2	8.121
62.42	2.217
62.64	6.599
62.86	6.981
63.08	7.19
63.3	4.508
63.52	4.744
63.74	6.692
63.96	4.97
64.18	12.695
64.4	0.973
64.62	0.983
64.84	4.365
65.06	2.201
65.28	6.985
65.5	6.879
65.72	5.641
65.94	11.537
66.16	10.609
66.38	16.39
66.6	8.201
66.82	9.776
67.04	6.361
67.26	1.828
67.48	0.673
67.7	5.742
67.92	5.634
68.14	14.916
68.36	12.911
68.58	14.91
68.8	5.838
69.02	2.911
69.24	0.942
69.46	4.222
69.68	5.374
69.9	11.646
70.12	5.85
70.34	13.382
70.56	9.72
70.78	9.567
71	5.893
71.22	9.35
71.44	5.565
71.66	6.647
71.88	7.556
72.1	4.44
72.32	4.112
72.54	0.237
72.76	4.248
72.98	3.56
73.2	10.414
73.42	6.131
73.64	1.956
73.86	13.057
74.08	7.185
74.3	10.357
74.52	1.209
74.74	5.246
74.96	3.812
75.18	2.005
75.4	1.378
75.62	9.595
75.84	3.649
76.06	2.534
76.28	4.316
76.5	10.204
76.72	1.861
76.94	9.021
77.16	24.865
77.38	18.951
77.6	2.339
77.82	11.307
78.04	8.38
78.26	12.495
78.48	1.63
78.7	2.827
78.92	0.817
79.14	0.815
79.36	6.748
79.58	2.766
79.8	2.378
80.02	4.098
80.24	5.249
80.46	4.509
80.68	1.549
80.9	16.862
81.12	1.108
81.34	4.175
81.56	6.409
81.78	1.552
82	10.842
82.22	7.883
82.44	6.823
82.66	3.703
82.88	8.422
83.1	3.345
83.32	4.078
83.54	2.834
83.76	6.829
83.98	1.664
84.2	5.693
84.42	6.481
84.64	6.397
84.86	3.45
85.08	11.381
85.3	3.29
85.52	4.369
85.74	7.247
85.96	0.235
86.18	2.177
86.4	3.158
86.62	3.213
86.84	4.147
87.06	7.105
87.28	10.069
87.5	8.118
87.72	9.269
87.94	8.198
88.16	0.277
88.38	3.405
88.6	6.444
88.82	10.417
89.04	5.472
89.26	7.743
89.48	8.75
89.7	6.281
89.92	0.677
