Measurement: Powder, Xray Data XY Processed
Mineral: Polylithionite
Rruff sample: R060172
Ideal chemistry: KLi_2_AlSi_4_O_10_F_2_
Locality: Mont Saint-Hilaire, Quebec, Canada
Source: Guy Ouellet
Description: Pseudohexagonal micaceous crystals with small white natrolite, red rhodochrosite and white albite
Diffraction sample description: Powder, with trace corundum contamination from the grinding process
Measured chemistry: (K_0.98_Na_0.02_)Li_2.00_(Al_0.84_Ti_0.10_Mg_0.04_Mn_0.02_)(Si_0.99_Al_0.01_)_4_O_10_(F_0.82_(OH)_0.18_)_2_
Cell parameters: a: 5.1953(6) b: 8.994(1) c: 10.0635(3) alpha: 90 beta: 100.483(5) gamma: 90 volume: 462.39(7) crystal system: monoclinic
x	intensity
5	0
5.22	4.21573
5.44	27.2845
5.66	1.41267
5.88	6.86708
6.1	10.6968
6.32	2.33835
6.54	2.28583
6.76	3.35006
6.98	8.47768
7.2	13.2094
7.42	0.810026
7.64	1.13106
7.86	1.67614
8.08	8.22876
8.3	0.464995
8.52	7.16498
8.74	7.05881
8.96	116.168
9.18	19.3653
9.4	7.08713
9.62	13.6514
9.84	1.32159
10.06	3.31154
10.28	5.08553
10.5	8.67151
10.72	4.36628
10.94	1.68593
11.16	0.777024
11.38	3.0237
11.6	0.683172
11.82	1.46712
12.04	6.78704
12.26	0.841081
12.48	1.54109
12.7	0.490335
12.92	0.500925
13.14	0.301619
13.36	9.49502
13.58	2.51258
13.8	0.61403
14.02	0.248262
14.24	4.33974
14.46	8.24429
14.68	4.6857
14.9	3.72823
15.12	10.6308
15.34	5.70035
15.56	0.547229
15.78	2.49984
16	5.18324
16.22	4.47055
16.44	1.53601
16.66	7.20691
16.88	3.68632
17.1	2.10107
17.32	6.86095
17.54	3.97333
17.76	12.8703
17.98	195.116
18.2	21.045
18.42	2.17844
18.64	2.92593
18.86	5.64513
19.08	0.242102
19.3	3.81351
19.52	0.183437
19.74	5.88487
19.96	19.7443
20.18	14.9186
20.4	7.08198
20.62	4.19763
20.84	2.35961
21.06	0.754392
21.28	6.5194
21.5	8.52423
21.72	2.97432
21.94	5.04923
22.16	3.11139
22.38	7.30741
22.6	6.98374
22.82	2.28187
23.04	6.07906
23.26	6.43064
23.48	0.172927
23.7	1.0182
23.92	13.344
24.14	6.43859
24.36	5.66707
24.58	14.0254
24.8	21.925
25.02	13.7783
25.24	0.668067
25.46	7.30883
25.68	12.9627
25.9	6.78848
26.12	0.740954
26.34	1.64739
26.56	13.8258
26.78	28.092
27	59.5978
27.22	62.6682
27.44	12.3273
27.66	0.673793
27.88	0.784762
28.1	11.8879
28.32	8.96022
28.54	8.15598
28.76	17.5032
28.98	25.5998
29.2	31.309
29.42	19.1262
29.64	9.32508
29.86	7.26974
30.08	1.37644
30.3	5.54894
30.52	7.61538
30.74	5.98256
30.96	14.9238
31.18	25.8693
31.4	9.63068
31.62	0.050538
31.84	1.17942
32.06	6.47366
32.28	2.80281
32.5	2.9096
32.72	8.87793
32.94	6.88078
33.16	4.77762
33.38	0.906618
33.6	7.66215
33.82	19.1015
34.04	0.179026
34.26	4.59644
34.48	3.09205
34.7	28.5853
34.92	16.3479
35.14	33.8314
35.36	23.9644
35.58	7.76189
35.8	10.8619
36.02	0.946189
36.24	5.93888
36.46	15.2891
36.68	14.4834
36.9	14.5971
37.12	3.2083
37.34	0.97566
37.56	12.4415
37.78	21.7063
38	22.9225
38.22	5.21105
38.44	1.73238
38.66	7.36733
38.88	9.43277
39.1	3.54079
39.32	6.63148
39.54	0.646969
39.76	0.810363
39.98	0.851575
40.2	11.6027
40.42	8.63734
40.64	3.73511
40.86	4.00077
41.08	13.2587
41.3	9.11527
41.52	2.82654
41.74	8.5462
41.96	5.35589
42.18	0.033549
42.4	14.7231
42.62	12.7112
42.84	6.55783
43.06	0.772771
43.28	14.6525
43.5	25.6149
43.72	6.68819
43.94	6.06523
44.16	1.5172
44.38	2.68749
44.6	5.66335
44.82	1.63635
45.04	7.5729
45.26	4.23369
45.48	0.377186
45.7	22.2037
45.92	123.193
46.14	22.4683
46.36	3.62219
46.58	5.90756
46.8	13.2261
47.02	3.77963
47.24	3.61379
47.46	7.15265
47.68	3.90942
47.9	3.37968
48.12	0.604874
48.34	0.273057
48.56	5.9429
48.78	5.37094
49	3.5357
49.22	1.79038
49.44	1.84436
49.66	0.536392
49.88	3.48603
50.1	7.30806
50.32	1.43986
50.54	2.40683
50.76	0.388777
50.98	4.06285
51.2	3.83957
51.42	0.382379
51.64	3.86075
51.86	4.61328
52.08	2.54736
52.3	3.15798
52.52	11.0073
52.74	11.812
52.96	0.784736
53.18	4.19346
53.4	2.73789
53.62	10.7493
53.84	6.32359
54.06	7.50091
54.28	4.60351
54.5	9.29943
54.72	7.01121
54.94	3.65387
55.16	0.987733
55.38	7.28449
55.6	4.62408
55.82	19.7449
56.04	6.21018
56.26	14.2965
56.48	4.66712
56.7	2.44428
56.92	0.713489
57.14	0.309072
57.36	8.26429
57.58	29.8863
57.8	4.73001
58.02	1.47473
58.24	0.966357
58.46	1.3753
58.68	8.47286
58.9	4.99347
59.12	0.274552
59.34	4.9508
59.56	4.39852
59.78	5.28581
60	13.1337
60.22	9.51596
60.44	4.02986
60.66	0.589656
60.88	6.2436
61.1	0.487899
61.32	14.1053
61.54	5.934
61.76	9.51435
61.98	8.74853
62.2	0.557045
62.42	4.29633
62.64	3.44991
62.86	0.242096
63.08	10.0739
63.3	3.3349
63.52	2.67668
63.74	4.72824
63.96	3.0157
64.18	5.12606
64.4	14.4296
64.62	1.05922
64.84	6.32823
65.06	4.30716
65.28	7.15461
65.5	7.00118
65.72	5.8433
65.94	1.83577
66.16	11.8649
66.38	11.5471
66.6	15.4561
66.82	6.96822
67.04	1.12733
67.26	6.51924
67.48	6.40709
67.7	4.32158
67.92	7.37742
68.14	12.2765
68.36	14.4898
68.58	4.43363
68.8	1.22539
69.02	1.05462
69.24	5.86802
69.46	1.81828
69.68	3.76981
69.9	6.71465
70.12	5.79688
70.34	7.97308
70.56	10.0399
70.78	13.2823
71	4.27349
71.22	5.66704
71.44	1.80034
71.66	2.22831
71.88	1.29369
72.1	5.21496
72.32	3.23161
72.54	0.042702
72.76	2.99844
72.98	7.19934
73.2	4.89808
73.42	12.7998
73.64	9.6814
73.86	3.66264
74.08	4.88238
74.3	6.11818
74.52	0.153855
74.74	3.03653
74.96	0.386801
75.18	4.69085
75.4	2.9366
75.62	0.982734
75.84	1.0997
76.06	2.92612
76.28	2.82413
76.5	5.87534
76.72	1.53283
76.94	8.30265
77.16	18.3447
77.38	9.59899
77.6	7.90784
77.82	7.29181
78.04	5.49949
78.26	2.71265
78.48	4.99812
78.7	3.21713
78.92	6.82484
79.14	0.813591
79.36	5.79625
79.58	4.46342
79.8	1.95806
80.02	6.7835
80.24	9.5118
80.46	4.44903
80.68	0.474409
80.9	3.63437
81.12	2.74288
81.34	7.05433
81.56	0.78728
81.78	0.14286
82	5.20603
82.22	4.26693
82.44	3.26309
82.66	5.33547
82.88	9.39297
83.1	5.19423
83.32	17.1106
83.54	6.91285
83.76	0.661651
83.98	8.26493
84.2	2.20022
84.42	4.53327
84.64	2.51338
84.86	7.45515
85.08	1.34201
85.3	0.355244
85.52	7.17191
85.74	2.20794
85.96	4.12821
86.18	0.519655
86.4	10.5032
86.62	2.30694
86.84	0.232018
87.06	2.14079
87.28	0.798083
87.5	5.21032
87.72	3.2429
87.94	10.367
88.16	11.4356
88.38	10.6047
88.6	5.42473
88.82	3.27405
89.04	5.35034
89.26	0.148082
89.48	0.038121
89.7	8.89214
89.92	0.098714
