Measurement: Powder, Xray Data XY Processed
Mineral: Portlandite
Rruff sample: R070210
Ideal chemistry: Ca(OH)_2_
Locality: N'Chwaning II mine, Kalahari Manganese Field, northern Cape Province, South Africa
Source: Michael Scott
Description: White flexible platy crystals associated with calcite
Diffraction sample description: Powder
Measured chemistry: Ca_1.00_(OH)_2_
Cell parameters: a: 3.59357(7) b: 3.59357(7) c: 4.90935(9) alpha: 90 beta: 90 gamma: 120 volume: 54.904(2) crystal system: hexagonal
x	intensity
5	0
5.22	6.06296
5.44	16.5237
5.66	2.57431
5.88	18.6439
6.1	15.7226
6.32	12.0146
6.54	11.2167
6.76	10.4741
6.98	8.83874
7.2	13.8627
7.42	12.1288
7.64	6.65332
7.86	10.892
8.08	1.90937
8.3	5.24233
8.52	6.42496
8.74	8.81032
8.96	2.94454
9.18	0.108217
9.4	10.6627
9.62	8.33556
9.84	10.6197
10.06	11.5523
10.28	1.3075
10.5	0.796804
10.72	13.2935
10.94	8.3189
11.16	1.10211
11.38	3.11985
11.6	3.30442
11.82	0.598682
12.04	5.9939
12.26	3.33745
12.48	6.61695
12.7	7.0452
12.92	8.59835
13.14	4.86511
13.36	5.24594
13.58	7.63621
13.8	3.06005
14.02	8.77384
14.24	7.00944
14.46	6.65107
14.68	3.09351
14.9	4.09787
15.12	2.30008
15.34	3.14018
15.56	6.25315
15.78	3.41287
16	1.63675
16.22	11.4311
16.44	9.61945
16.66	1.23162
16.88	7.03469
17.1	5.23237
17.32	3.60522
17.54	15.991
17.76	23.6058
17.98	337.055
18.2	286.885
18.42	17.6689
18.64	17.5446
18.86	5.96645
19.08	0.284221
19.3	5.92295
19.52	2.48078
19.74	11.0729
19.96	1.76205
20.18	3.59207
20.4	6.00254
20.62	3.02726
20.84	3.2065
21.06	4.66558
21.28	3.86931
21.5	1.27955
21.72	5.31916
21.94	12.6928
22.16	8.04569
22.38	3.15391
22.6	10.2586
22.82	4.54364
23.04	9.80631
23.26	4.93265
23.48	1.98791
23.7	3.27001
23.92	1.2467
24.14	3.39469
24.36	3.40087
24.58	6.40002
24.8	0.821035
25.02	3.07187
25.24	2.0027
25.46	8.87597
25.68	2.76715
25.9	2.76633
26.12	0.515295
26.34	0.745815
26.56	7.21401
26.78	3.2418
27	12.2536
27.22	7.18959
27.44	2.10282
27.66	0.971074
27.88	2.86673
28.1	4.87341
28.32	13.0052
28.54	7.02909
28.76	42.919
28.98	10.618
29.2	5.68584
29.42	2.63381
29.64	3.61103
29.86	3.59906
30.08	6.68452
30.3	6.07875
30.52	3.30855
30.74	10.0582
30.96	9.03298
31.18	9.11313
31.4	2.10224
31.62	0.3378
31.84	6.71163
32.06	4.39564
32.28	1.04791
32.5	3.32202
32.72	6.36655
32.94	8.5099
33.16	8.88867
33.38	2.23264
33.6	15.5728
33.82	16.1424
34.04	228.38
34.26	195.136
34.48	26.3282
34.7	7.57641
34.92	4.23526
35.14	4.99717
35.36	1.93417
35.58	7.43323
35.8	2.063
36.02	9.5702
36.24	1.00308
36.46	3.97386
36.68	14.1481
36.9	4.21867
37.12	5.54044
37.34	9.46648
37.56	2.37342
37.78	5.1753
38	8.33974
38.22	7.29209
38.44	2.30561
38.66	5.45963
38.88	3.47054
39.1	0.579778
39.32	6.63143
39.54	2.49283
39.76	0.471694
39.98	5.2789
40.2	3.4025
40.42	3.29506
40.64	5.3228
40.86	6.70422
41.08	6.62021
41.3	1.51239
41.52	7.70798
41.74	7.72689
41.96	0.787296
42.18	1.78638
42.4	12.8421
42.62	7.9594
42.84	6.92038
43.06	0.938207
43.28	3.04422
43.5	11.9109
43.72	4.86824
43.94	1.56401
44.16	2.45808
44.38	0.744092
44.6	2.95252
44.82	3.63902
45.04	5.55048
45.26	6.12057
45.48	5.76707
45.7	0.794668
45.92	6.35092
46.14	6.83659
46.36	7.37833
46.58	12.9433
46.8	12.6735
47.02	104.506
47.24	214.427
47.46	33.5491
47.68	5.66427
47.9	6.25772
48.12	3.80843
48.34	9.55421
48.56	4.19232
48.78	2.98157
49	2.50861
49.22	7.76945
49.44	1.14263
49.66	1.69949
49.88	6.09106
50.1	6.14243
50.32	4.92322
50.54	9.99479
50.76	55.2145
50.98	43.3619
51.2	12.0156
51.42	3.17744
51.64	8.54898
51.86	2.45405
52.08	2.59559
52.3	2.55966
52.52	4.77612
52.74	3.81173
52.96	6.64003
53.18	0.098604
53.4	8.6927
53.62	0.414114
53.84	2.43471
54.06	5.21777
54.28	27.1826
54.5	35.2777
54.72	12.2687
54.94	9.2775
55.16	3.32723
55.38	2.45369
55.6	3.81931
55.82	6.21103
56.04	10.591
56.26	28.7106
56.48	11.715
56.7	3.8511
56.92	2.76652
57.14	1.00961
57.36	7.04099
57.58	6.13811
57.8	3.34589
58.02	2.18657
58.24	0.991932
58.46	0.798271
58.68	2.84969
58.9	2.94861
59.12	4.21804
59.34	12.196
59.56	6.19411
59.78	6.24484
60	7.28389
60.22	8.13624
60.44	6.13353
60.66	7.56957
60.88	4.65625
61.1	2.71966
61.32	5.43404
61.54	13.0377
61.76	1.78761
61.98	5.59946
62.2	0.531061
62.42	5.08505
62.64	20.7576
62.86	11.4086
63.08	5.56637
63.3	2.24365
63.52	4.8467
63.74	4.78008
63.96	11.7933
64.18	35.9143
64.4	71.3058
64.62	28.5494
64.84	10.9058
65.06	1.34192
65.28	3.83932
65.5	2.28289
65.72	7.77679
65.94	0.800469
66.16	3.48918
66.38	4.70404
66.6	4.98003
66.82	5.811
67.04	4.05414
67.26	6.23035
67.48	6.12112
67.7	5.20649
67.92	5.09235
68.14	6.97748
68.36	6.83853
68.58	2.7259
68.8	3.62669
69.02	7.45131
69.24	5.47885
69.46	3.37285
69.68	4.05154
69.9	4.1926
70.12	2.07004
70.34	7.03095
70.56	3.88161
70.78	3.76243
71	6.67429
71.22	3.57513
71.44	8.46386
71.66	10.2436
71.88	20.1337
72.1	6.24959
72.32	6.2253
72.54	5.42709
72.76	0.5244
72.98	5.76574
73.2	2.10095
73.42	7.53189
73.64	3.75085
73.86	2.87975
74.08	4.06675
74.3	3.98651
74.52	4.46673
74.74	8.45223
74.96	2.43836
75.18	3.45259
75.4	2.60652
75.62	2.55234
75.84	5.10402
76.06	6.13295
76.28	4.11551
76.5	2.03714
76.72	4.77341
76.94	4.23302
77.16	8.94868
77.38	6.10058
77.6	9.04436
77.82	31.6974
78.04	14.6013
78.26	2.60949
78.48	4.40341
78.7	0.703246
78.92	0.789904
79.14	7.07025
79.36	10.4191
79.58	8.6741
79.8	3.55318
80.02	4.50659
80.24	5.67305
80.46	5.73228
80.68	7.74709
80.9	7.55634
81.12	1.53453
81.34	4.51987
81.56	2.29358
81.78	3.98406
82	4.12524
82.22	6.1248
82.44	4.22668
82.66	2.25369
82.88	3.25243
83.1	5.36575
83.32	4.4501
83.54	3.21425
83.76	1.07308
83.98	0.952453
84.2	2.10446
84.42	6.75791
84.64	10.4814
84.86	27.1802
85.08	15.9679
85.3	5.86573
85.52	1.59379
85.74	1.49263
85.96	4.58075
86.18	5.75509
86.4	17.1598
86.62	14.0681
86.84	5.15651
87.06	1.48884
87.28	1.77102
87.5	10.0218
87.72	3.25198
87.94	6.49902
88.16	1.73162
88.38	4.88913
88.6	3.14757
88.82	1.12748
89.04	5.42391
89.26	6.28178
89.48	10.6337
89.7	7.11756
89.92	6.14405
