Measurement: Powder, Xray Data XY Processed
Mineral: Potassic-magnesio-fluoro-arfvedsonite
Rruff sample: R060915
Ideal chemistry: KNa_2_(Mg_4_Fe^3+^)Si_8_O_22_F_2_
Locality: Kipawa, Quebec, Canada
Source: Royal Ontario Museum
Description: Dark blue-green amphibole with pronounced cleavage, associated with white albite and red eudialyte
Diffraction sample description: Powder
Measured chemistry: (K_0.44_Na_0.41_[box]_0.15_)_Σ=1_(Na_1.79_Ca_0.21_)_Σ=2_(Mg_3.10_Fe^3+^_0.82_Fe^2+^_0.54_Ca_0.27_Mn_0.15_Al_0.11_Ti_0.01_)_Σ=5_Si_8.00_O_22_(F_1.52_(OH)_0.48_)_Σ=2_
Cell parameters: a: 9.8859(3) b: 17.9548(9) c: 5.2756(4) alpha: 90 beta: 104.294(3) gamma: 90 volume: 907.42(7) crystal system: monoclinic
x	intensity
5	0
5.22	2.45889
5.44	9.34764
5.66	13.4998
5.88	9.19763
6.1	9.21901
6.32	11.2834
6.54	12.1987
6.76	10.4873
6.98	13.0142
7.2	5.62932
7.42	24.5408
7.64	17.438
7.86	0.269829
8.08	10.81
8.3	19.3002
8.52	11.2294
8.74	19.4845
8.96	5.57308
9.18	16.4506
9.4	18.056
9.62	15.1064
9.84	13.723
10.06	2.58004
10.28	13.333
10.5	476.67
10.72	15.1018
10.94	14.5784
11.16	10.0582
11.38	8.52577
11.6	7.19927
11.82	11.2947
12.04	22.2048
12.26	18.7263
12.48	17.5838
12.7	9.88098
12.92	12.9937
13.14	16.1696
13.36	3.85261
13.58	13.5195
13.8	8.78957
14.02	19.0257
14.24	4.3086
14.46	3.98556
14.68	15.9972
14.9	14.5725
15.12	14.6977
15.34	12.8128
15.56	1.31025
15.78	19.578
16	19.1144
16.22	4.94578
16.44	20.6919
16.66	14.0375
16.88	13.3982
17.1	10.1841
17.32	4.15421
17.54	16.548
17.76	18.8524
17.98	9.47707
18.2	13.7867
18.42	15.6763
18.64	18.4379
18.86	3.21945
19.08	1.81114
19.3	10.0597
19.52	20.115
19.74	15.9671
19.96	14.2425
20.18	26.7602
20.4	18.3062
20.62	16.9974
20.84	4.09033
21.06	6.21041
21.28	12.455
21.5	3.04609
21.72	18.3274
21.94	20.8352
22.16	5.20801
22.38	14.1492
22.6	0.701408
22.82	15.322
23.04	23.0732
23.26	12.9233
23.48	5.18421
23.7	24.4055
23.92	8.3725
24.14	8.75126
24.36	9.38557
24.58	0.870712
24.8	19.4453
25.02	15.7033
25.24	5.19229
25.46	6.11943
25.68	7.83968
25.9	5.39238
26.12	18.6188
26.34	90.4298
26.56	5.90272
26.78	12.8916
27	9.93738
27.22	147.619
27.44	10.3074
27.66	9.2719
27.88	18.9607
28.1	2.42546
28.32	79.9258
28.54	51.2024
28.76	0.571262
28.98	8.07465
29.2	12.0411
29.42	1.06105
29.64	3.00117
29.86	12.2842
30.08	13.2082
30.3	30.5052
30.52	13.5283
30.74	5.6304
30.96	16.161
31.18	11.8926
31.4	15.9932
31.62	14.9745
31.84	102.833
32.06	4.92105
32.28	6.92565
32.5	13.7805
32.72	21.1364
32.94	22.284
33.16	87.3671
33.38	17.1712
33.6	17.5504
33.82	3.54355
34.04	7.4612
34.26	13.5184
34.48	18.5985
34.7	39.09
34.92	16.4029
35.14	11.7269
35.36	4.75888
35.58	28.3155
35.8	5.59668
36.02	2.19503
36.24	8.74986
36.46	5.40716
36.68	9.47558
36.9	27.7143
37.12	13.5042
37.34	17.7461
37.56	11.6102
37.78	23.5719
38	22.3526
38.22	20.3475
38.44	10.8562
38.66	42.7891
38.88	20.0842
39.1	2.59765
39.32	19.4991
39.54	4.44496
39.76	22.3828
39.98	8.78081
40.2	23.8756
40.42	1.82568
40.64	11.5608
40.86	4.68724
41.08	8.20856
41.3	8.9609
41.52	16.9451
41.74	72.2247
41.96	16.2838
42.18	5.16107
42.4	8.51439
42.62	20.1142
42.84	18.3341
43.06	12.3291
43.28	16.4245
43.5	13.9898
43.72	4.46959
43.94	8.36112
44.16	9.04718
44.38	4.71681
44.6	12.5897
44.82	11.1831
45.04	9.71288
45.26	10.4856
45.48	2.49011
45.7	10.5287
45.92	3.58708
46.14	3.00887
46.36	13.6684
46.58	17.8757
46.8	19.3692
47.02	28.5195
47.24	14.0472
47.46	2.9276
47.68	32.9898
47.9	11.2324
48.12	27.834
48.34	7.00303
48.56	11.8329
48.78	13.3311
49	0.598995
49.22	16.414
49.44	16.9638
49.66	5.12986
49.88	19.197
50.1	6.55282
50.32	8.61715
50.54	7.2581
50.76	11.1707
50.98	3.33907
51.2	5.95303
51.42	8.20534
51.64	13.1802
51.86	2.32891
52.08	5.65415
52.3	22.5573
52.52	4.3052
52.74	12.27
52.96	10.5055
53.18	11.7059
53.4	25.4896
53.62	11.056
53.84	5.80752
54.06	12.7464
54.28	16.3534
54.5	6.84042
54.72	20.3393
54.94	13.3073
55.16	9.20577
55.38	2.9716
55.6	44.2513
55.82	8.74971
56.04	17.6884
56.26	8.735
56.48	10.5371
56.7	12.316
56.92	29.587
57.14	6.95649
57.36	1.32286
57.58	4.53112
57.8	29.5782
58.02	2.84669
58.24	2.4639
58.46	4.80561
58.68	29.157
58.9	0.17186
59.12	10.393
59.34	4.3302
59.56	21.939
59.78	1.73708
60	8.01345
60.22	22.845
60.44	15.0445
60.66	8.56141
60.88	7.40703
61.1	11.2463
61.32	23.5036
61.54	21.8735
61.76	6.24122
61.98	18.9249
62.2	16.4705
62.42	8.67103
62.64	9.6781
62.86	15.7418
63.08	1.75373
63.3	4.25014
63.52	9.72076
63.74	1.42727
63.96	13.3272
64.18	6.25651
64.4	5.51705
64.62	34.4768
64.84	26.5613
65.06	12.4552
65.28	2.13198
65.5	6.37283
65.72	12.0606
65.94	7.43535
66.16	3.92273
66.38	5.88103
66.6	10.0172
66.82	5.45874
67.04	24.5397
67.26	9.48718
67.48	0.680803
67.7	6.2278
67.92	8.18341
68.14	14.0256
68.36	17.791
68.58	12.6029
68.8	22.6055
69.02	18.6073
69.24	2.91711
69.46	0.836491
69.68	6.60699
69.9	7.26243
70.12	17.828
70.34	6.12164
70.56	12.9554
70.78	15.9211
71	6.76272
71.22	4.31874
71.44	2.43901
71.66	3.37054
71.88	16.4047
72.1	12.741
72.32	12.2117
72.54	11.5707
72.76	12.5621
72.98	12.45
73.2	17.7477
73.42	18.0563
73.64	8.53416
73.86	2.86072
74.08	14.1973
74.3	16.4278
74.52	8.36878
74.74	5.12521
74.96	7.39435
75.18	7.43623
75.4	11.8042
75.62	11.8856
75.84	2.15598
76.06	5.82639
76.28	9.73205
76.5	17.9621
76.72	18.4868
76.94	12.7004
77.16	10.165
77.38	1.19373
77.6	1.81555
77.82	4.87905
78.04	8.57123
78.26	1.21001
78.48	18.9893
78.7	6.13056
78.92	11.7331
79.14	1.28861
79.36	9.73876
79.58	17.6981
79.8	0.320612
80.02	25.9924
80.24	22.1032
80.46	0.127817
80.68	7.16002
80.9	19.774
81.12	2.95565
81.34	1.60638
81.56	17.6317
81.78	4.68269
82	18.9562
82.22	1.80631
82.44	7.93954
82.66	12.7701
82.88	9.42559
83.1	20.4011
83.32	3.04673
83.54	4.52895
83.76	8.70439
83.98	18.3637
84.2	10.7131
84.42	7.589
84.64	9.42846
84.86	19.9857
85.08	12.1422
85.3	3.99391
85.52	3.93071
85.74	0.882776
85.96	12.8241
86.18	0.683388
86.4	2.20453
86.62	9.0232
86.84	20.1484
87.06	11.2036
87.28	1.23447
87.5	14.3316
87.72	8.46829
87.94	7.75138
88.16	9.36655
88.38	19.9387
88.6	16.007
88.82	18.0376
89.04	0.955709
89.26	11.946
89.48	10.4613
89.7	15.0419
89.92	9.37351
