Measurement: Powder, Xray Data XY Processed
Mineral: Poughite
Rruff sample: R080026
Ideal chemistry: Fe^3+^_2_(Te^4+^O_3_)_2_S^6+^O_4_3H_2_O
Locality: Mina Candelaria, Moctezuma, Sonora, Mexico
Source: William W. Pinch
Description: Bright-yellow to honey-yellow drusy crusts associated with green emmonsite
Diffraction sample description: Powder, using Mo radiation
Cell parameters: a: 9.74(2) b: 14.301(7) c: 7.901(5) alpha: 90 beta: 90 gamma: 90 volume: 1100(2) crystal system: orthorhombic
x	intensity
5.29	0
5.37	13.6644
5.45	0.690018
5.53	57.7904
5.61	411.722
5.69	932.678
5.77	1262.38
5.85	802.867
5.93	291.667
6.01	87.3588
6.09	72.4167
6.17	58.2195
6.25	53.5227
6.33	44.5178
6.41	59.0896
6.49	128.203
6.57	248.788
6.65	346.373
6.73	368.485
6.81	277.964
6.89	675.578
6.97	1780.73
7.05	2777.94
7.13	2686.37
7.21	1552.03
7.29	602.678
7.37	249.387
7.45	128.803
7.53	113.266
7.61	95.1084
7.69	113.206
7.77	98.7249
7.85	47.6724
7.93	77.1367
8.01	51.8656
8.09	47.1005
8.17	47.8051
8.25	76.161
8.33	115.833
8.41	100.387
8.49	69.7006
8.57	43.3076
8.65	52.8027
8.73	61.2912
8.81	75.6294
8.89	42.8113
8.97	29.0218
9.05	13.3553
9.13	11.6059
9.21	2.05658
9.29	8.89792
9.37	5.93564
9.45	7.76718
9.53	5.58993
9.61	24.8446
9.69	1.49857
9.77	20.3621
9.85	29.1848
9.93	23.8008
10.01	22.6755
10.09	96.221
10.17	184.576
10.25	423.394
10.33	622.814
10.41	522.044
10.49	220.118
10.57	10.3644
10.65	10.3232
10.73	27.8827
10.81	92.8232
10.89	106.975
10.97	51.2777
11.05	6.68893
11.13	15.2927
11.21	196.567
11.29	717.824
11.37	1284.24
11.45	1452.31
11.53	1118.93
11.61	557.782
11.69	179.206
11.77	9.27844
11.85	22.3356
11.93	73.16
12.01	438.851
12.09	1181.29
12.17	1698.42
12.25	1541.25
12.33	974.114
12.41	1220.82
12.49	2118.87
12.57	2701.8
12.65	1890.91
12.73	674.958
12.81	113.04
12.89	6.87671
12.97	33.9653
13.05	119.443
13.13	521.498
13.21	1351.03
13.29	2393.26
13.37	2819.55
13.45	2407.8
13.53	2381.66
13.61	2780.49
13.69	2837.05
13.77	2268.18
13.85	1769.57
13.93	1301.44
14.01	809.699
14.09	605.738
14.17	625.285
14.25	604.95
14.33	644.112
14.41	1038.83
14.49	1550.26
14.57	1463.16
14.65	913.275
14.73	546.767
14.81	425.422
14.89	274.296
14.97	92.0477
15.05	20.0248
15.13	27.9825
15.21	25.4764
15.29	35.6748
15.37	142.146
15.45	193.959
15.53	116.978
15.61	40.6852
15.69	54.3652
15.77	166.205
15.85	363.49
15.93	580.663
16.01	709.879
16.09	619.457
16.17	370.294
16.25	123.232
16.33	0.302338
16.41	17.3302
16.49	63.6191
16.57	92.3394
16.65	105.57
16.73	50.2217
16.81	2.73389
16.89	7.13278
16.97	7.54318
17.05	57.3522
17.13	198.684
17.21	393.994
17.29	549.763
17.37	538.741
17.45	365.672
17.53	231.885
17.61	270.331
17.69	400.345
17.77	564.648
17.85	617.209
17.93	557.571
18.01	346.779
18.09	144.131
18.17	49.1297
18.25	65.9964
18.33	202.489
18.41	411.105
18.49	672.393
18.57	665.056
18.65	431.651
18.73	165.691
18.81	9.34393
18.89	11.1717
18.97	62.7436
19.05	208.567
19.13	271.205
19.21	224.33
19.29	76.4685
19.37	9.3399
19.45	35.836
19.53	48.9206
19.61	38.8904
19.69	105.542
19.77	209.063
19.85	289.355
19.93	292.334
20.01	267.39
20.09	245.18
20.17	179.778
20.25	89.9756
20.33	56.2915
20.41	69.2584
20.49	94.4113
20.57	109.122
20.65	130.948
20.73	164.426
20.81	180.805
20.89	238.869
20.97	311.417
21.05	380.982
21.13	358.982
21.21	334.661
21.29	373.466
21.37	420.214
21.45	563.992
21.53	593.698
21.61	756.923
21.69	858.062
21.77	844.962
21.85	785.963
21.93	622.17
22.01	417.367
22.09	210.885
22.17	21.102
22.25	21.1894
22.33	46.6939
22.41	188.64
22.49	315.051
22.57	359.304
22.65	311.641
22.73	267.764
22.81	282.455
22.89	279.124
22.97	371.131
23.05	447.438
23.13	540.285
23.21	493.783
23.29	398.698
23.37	234.639
23.45	89.1169
23.53	60.6225
23.61	125.211
23.69	237.367
23.77	274.474
23.85	216.249
23.93	221.962
24.01	266.126
24.09	352.707
24.17	340.839
24.25	223.84
24.33	92.848
24.41	108.407
24.49	233.837
24.57	389.884
24.65	357.377
24.73	228.772
24.81	125.28
24.89	13.892
24.97	4.37817
25.05	37.8171
25.13	54.9796
25.21	28.7756
25.29	18.947
25.37	45.407
25.45	33.0936
25.53	131.909
25.61	174.231
25.69	277.415
25.77	206.256
25.85	76.7957
25.93	28.9386
26.01	25.5941
26.09	153.159
26.17	500.644
26.25	731.259
26.33	904.484
26.41	887.08
26.49	853.982
26.57	692.701
26.65	540.064
26.73	391.208
26.81	346.702
26.89	376.125
26.97	404.934
27.05	378.383
27.13	239.214
27.21	99.7367
27.29	27.8187
27.37	24.7514
27.45	59.92
27.53	127.963
27.61	214.467
27.69	271.767
27.77	286.771
27.85	233.297
27.93	88.7231
28.01	28.0662
28.09	25.0312
28.17	76.1621
28.25	231.647
28.33	323.264
28.41	332.14
28.49	240.048
28.57	132.942
28.65	61.9952
28.73	9.14896
28.81	52.5292
28.89	138.444
28.97	240.574
29.05	306.796
29.13	317.044
29.21	228.413
29.29	141.486
29.37	5.68497
29.45	8.15329
29.53	3.82272
29.61	1.06769
29.69	53.3228
29.77	55.8329
29.85	64.7575
29.93	92.2364
30.01	105.004
30.09	144.282
30.17	184.749
30.25	154.125
30.33	211.607
30.41	199.648
30.49	187.552
30.57	150.807
30.65	130.488
30.73	89.0922
30.81	22.7752
30.89	26.8646
30.97	5.78589
31.05	0.029388
31.13	50.5271
31.21	49.1587
31.29	83.6887
31.37	143.086
31.45	136.408
31.53	168.496
31.61	201.848
31.69	202.571
31.77	173.049
31.85	205.129
31.93	212.906
32.01	161.437
32.09	157.25
32.17	100.462
32.25	78.9547
32.33	59.5987
32.41	31.5667
32.49	48.6688
32.57	85.0679
32.65	56.2962
32.73	65.8133
32.81	39.9265
32.89	1.23465
32.97	3.48007
33.05	16.2314
33.13	15.1334
33.21	49.3041
33.29	58.2279
33.37	71.5831
33.45	111.589
33.53	154.592
33.61	220.347
33.69	242.281
33.77	246.916
33.85	192.187
33.93	184.511
34.01	158.884
34.09	115.333
34.17	68.0082
34.25	45.3088
34.33	34.225
34.41	65.8711
34.49	64.2058
34.57	93.783
34.65	110.824
34.73	227.843
34.81	332.311
34.89	410.322
34.97	336.549
35.05	221.79
35.13	140.263
35.21	69.2281
35.29	5.12466
35.37	13.3534
35.45	0.291321
35.53	0.607422
