Measurement: Powder, Xray Data XY Processed
Mineral: Prehnite
Rruff sample: R050055
Ideal chemistry: Ca_2_Al(Si_3_Al)O_10_(OH)_2_
Locality: Diako, Sandare District, Mali
Source: Rock Currier
Description: Light green reniform aggregate
Diffraction sample description: Powder
Measured chemistry: Ca_2_(Al_.886_Fe_.114_)_2_Si_3_O_10_(OH)_2_
Cell parameters: a: 4.6484(3) b: 5.4898(5) c: 18.547(1) alpha: 90. beta: 90. gamma: 90. volume: 473.31(4) crystal system: orthorhombic
x	intensity
5	0
5.22	10.964
5.44	9.999
5.66	0.912
5.88	10.985
6.1	10.189
6.32	2.485
6.54	4.368
6.76	5.774
6.98	0.762
7.2	0.622
7.42	3.047
7.64	16.847
7.86	0.225
8.08	4.304
8.3	9.743
8.52	3.114
8.74	4.646
8.96	3.619
9.18	15.053
9.4	6.303
9.62	51.572
9.84	1.592
10.06	14.642
10.28	15.902
10.5	0.836
10.72	5.98
10.94	2.381
11.16	3.304
11.38	13.95
11.6	11.736
11.82	13.267
12.04	16.367
12.26	13.423
12.48	10.116
12.7	11.06
12.92	9.093
13.14	12.182
13.36	15.771
13.58	9.001
13.8	0.144
14.02	5.138
14.24	11.641
14.46	5.529
14.68	0.443
14.9	13.437
15.12	20.507
15.34	9.507
15.56	5.715
15.78	13.822
16	5.585
16.22	14.668
16.44	8.02
16.66	9.199
16.88	96.605
17.1	3.991
17.32	14.249
17.54	8.307
17.76	6.778
17.98	16.562
18.2	8.773
18.42	13.593
18.64	7.696
18.86	10.715
19.08	57.499
19.3	19.072
19.52	16.915
19.74	9.891
19.96	14.761
20.18	9.853
20.4	2.125
20.62	5.774
20.84	10.805
21.06	9.826
21.28	9.47
21.5	12.694
21.72	20.659
21.94	3.519
22.16	4.193
22.38	1.1
22.6	4.218
22.82	7.274
23.04	12.722
23.26	10.105
23.48	1.126
23.7	2.285
23.92	5.47
24.14	1.84
24.36	4.899
24.58	8.511
24.8	3.284
25.02	19.614
25.24	45.288
25.46	26.344
25.68	137.6
25.9	11.174
26.12	6.661
26.34	0.758
26.56	11.117
26.78	20.246
27	121.493
27.22	162.991
27.44	16.42
27.66	6.577
27.88	1.78
28.1	15.989
28.32	4.176
28.54	7.527
28.76	18.076
28.98	209.928
29.2	94.51
29.42	16.613
29.64	7.291
29.86	8.392
30.08	9.643
30.3	5.775
30.52	11.859
30.74	7.762
30.96	3.515
31.18	8.444
31.4	16.481
31.62	16.235
31.84	75.063
32.06	5.319
32.28	12.618
32.5	9.055
32.72	10.841
32.94	9.582
33.16	3.282
33.38	7.252
33.6	0.306
33.82	12.806
34.04	24.462
34.26	21.812
34.48	9.236
34.7	9.112
34.92	145.832
35.14	125.255
35.36	12.206
35.58	12.264
35.8	2.494
36.02	11.621
36.24	8.299
36.46	2.447
36.68	12.576
36.9	6.42
37.12	8.885
37.34	2.464
37.56	20.67
37.78	16.83
38	29.854
38.22	50.907
38.44	56.638
38.66	45.582
38.88	72.827
39.1	6.699
39.32	15.742
39.54	13.39
39.76	8.937
39.98	8.492
40.2	12.017
40.42	11.651
40.64	17.381
40.86	9.887
41.08	16.011
41.3	0.921
41.52	15.527
41.74	13.806
41.96	12.918
42.18	2.225
42.4	4.387
42.62	20.002
42.84	6.23
43.06	9.332
43.28	4.213
43.5	14.758
43.72	33.977
43.94	14.144
44.16	15.467
44.38	11.446
44.6	7.738
44.82	9.789
45.04	3.111
45.26	7.638
45.48	12.893
45.7	2.049
45.92	2.867
46.14	5.828
46.36	7.084
46.58	14.782
46.8	39.479
47.02	28.558
47.24	13.798
47.46	3.024
47.68	6.755
47.9	4.628
48.12	10.637
48.34	3.643
48.56	0.491
48.78	3.459
49	3.498
49.22	29.883
49.44	12.717
49.66	10.686
49.88	1.466
50.1	14.399
50.32	0.714
50.54	7.028
50.76	0.779
50.98	13.517
51.2	22.326
51.42	47.111
51.64	70.322
51.86	12.401
52.08	18.135
52.3	11.879
52.52	0.633
52.74	6.627
52.96	6.382
53.18	3.72
53.4	8.116
53.62	8.275
53.84	22.737
54.06	16.062
54.28	3.428
54.5	1.24
54.72	15.044
54.94	1.201
55.16	40.265
55.38	16.314
55.6	1.763
55.82	9.435
56.04	48.192
56.26	20.433
56.48	14.128
56.7	1.231
56.92	0.563
57.14	5.375
57.36	3.16
57.58	4.019
57.8	15.075
58.02	5.409
58.24	14.012
58.46	7.127
58.68	15.19
58.9	3.671
59.12	2.192
59.34	12.588
59.56	17.758
59.78	40.179
60	27.039
60.22	19.12
60.44	8.381
60.66	3.586
60.88	16.73
61.1	3.19
61.32	8.478
61.54	5.634
61.76	0.604
61.98	18.249
62.2	5.366
62.42	1.525
62.64	11.364
62.86	4.586
63.08	0.31
63.3	22.623
63.52	18.427
63.74	16.81
63.96	11.95
64.18	20.381
64.4	22.189
64.62	9.781
64.84	5.862
65.06	6.94
65.28	4.915
65.5	5.01
65.72	0.993
65.94	25.774
66.16	16.727
66.38	18.811
66.6	5.66
66.82	10.197
67.04	19.253
67.26	11.312
67.48	8.347
67.7	20.456
67.92	10.249
68.14	4.35
68.36	21.242
68.58	4.132
68.8	10.357
69.02	7.621
69.24	10.814
69.46	6.007
69.68	12.797
69.9	11.801
70.12	10.689
70.34	3.903
70.56	5.68
70.78	3.944
71	0.867
71.22	15.38
71.44	18.999
71.66	10.51
71.88	6.763
72.1	4.036
72.32	8.691
72.54	1.444
72.76	3.897
72.98	22.825
73.2	8.124
73.42	7.417
73.64	21.114
73.86	8.456
74.08	9.843
74.3	7.503
74.52	7.982
74.74	1.354
74.96	10.067
75.18	1.994
75.4	13.756
75.62	8.676
75.84	8.445
76.06	10.7
76.28	3.17
76.5	4.674
76.72	9.579
76.94	12.517
77.16	20.504
77.38	11.388
77.6	5.388
77.82	3.813
78.04	5.665
78.26	11.43
78.48	17.025
78.7	3.3
78.92	12.827
79.14	4.752
79.36	16.14
79.58	8.037
79.8	4.935
80.02	6.911
80.24	9.196
80.46	6.042
80.68	3.925
80.9	6.78
81.12	4.908
81.34	2.697
81.56	9.483
81.78	3.79
82	4.665
82.22	1.293
82.44	8.161
82.66	21.066
82.88	18.228
83.1	14.943
83.32	18.335
83.54	7.246
83.76	14.173
83.98	13.483
84.2	0.216
84.42	11.129
84.64	11.234
84.86	7.447
85.08	2.427
85.3	0.443
85.52	4.349
85.74	3.528
85.96	16.921
86.18	15.526
86.4	16.758
86.62	11.48
86.84	1.581
87.06	17.721
87.28	17.214
87.5	10.35
87.72	2.295
87.94	10.128
88.16	5.941
88.38	14.82
88.6	9.623
88.82	5.295
89.04	6.682
89.26	23.042
89.48	7.744
89.7	9.398
89.92	8.705
