Measurement: Powder, Xray Data XY Processed
Mineral: Prehnite
Rruff sample: R050410
Ideal chemistry: Ca_2_Al(Si_3_Al)O_10_(OH)_2_
Locality: Topel, Namibia
Source: John Lucking
Description: Aggregate of pale green prismatic crystals
Diffraction sample description: Powder
Measured chemistry: Ca_1.98_Al_0.99_(Si_3.02_Al_0.99_)O_10_(OH)_2
Cell parameters: a: 4.6268(6) b: 5.4839(7) c: 18.4761(10) alpha: 90. beta: 90. gamma: 90. volume: 468.80(5) crystal system: orthorhombic
x	intensity
5	0
5.22	6.748
5.44	14.563
5.66	4.718
5.88	2.353
6.1	9.868
6.32	13.488
6.54	11.611
6.76	7.514
6.98	8.473
7.2	3.162
7.42	14.012
7.64	3.563
7.86	5.179
8.08	4.897
8.3	6.524
8.52	4.829
8.74	8.286
8.96	3.979
9.18	0.307
9.4	14.318
9.62	62.441
9.84	4.455
10.06	0.007
10.28	1.314
10.5	7.577
10.72	7.69
10.94	9.89
11.16	12.059
11.38	1.23
11.6	7.393
11.82	0.442
12.04	11.325
12.26	4.459
12.48	4.31
12.7	6.196
12.92	11.954
13.14	4.943
13.36	10.04
13.58	2.174
13.8	12.198
14.02	0.183
14.24	8.364
14.46	4.945
14.68	4.054
14.9	5.043
15.12	11.322
15.34	9.473
15.56	8.475
15.78	4.406
16	6.386
16.22	9.668
16.44	6.651
16.66	1.52
16.88	67.451
17.1	5.457
17.32	4.888
17.54	3.818
17.76	5.804
17.98	3.857
18.2	6.887
18.42	8.754
18.64	12.665
18.86	6.91
19.08	7.834
19.3	6.694
19.52	8.344
19.74	11.919
19.96	7.891
20.18	11.832
20.4	3.7
20.62	2.587
20.84	6.747
21.06	3.026
21.28	4.716
21.5	23.861
21.72	9.609
21.94	1.242
22.16	2.707
22.38	3.662
22.6	1.762
22.82	1.672
23.04	1.222
23.26	9.438
23.48	4.946
23.7	1.218
23.92	5.994
24.14	10.724
24.36	3.271
24.58	3.005
24.8	3.531
25.02	5.979
25.24	52.083
25.46	8.861
25.68	241.735
25.9	7.402
26.12	14.765
26.34	12.534
26.56	1.402
26.78	4.952
27	133.824
27.22	39.786
27.44	2.884
27.66	9.341
27.88	2.156
28.1	6.951
28.32	2.998
28.54	3.16
28.76	18.238
28.98	583.287
29.2	123.161
29.42	4.633
29.64	9.877
29.86	3.087
30.08	4.462
30.3	0.778
30.52	16.098
30.74	13.233
30.96	7.186
31.18	5.382
31.4	5.768
31.62	1.418
31.84	73.482
32.06	8.459
32.28	11.573
32.5	8.912
32.72	1.965
32.94	6.853
33.16	6.833
33.38	11.106
33.6	1.031
33.82	2.64
34.04	17.569
34.26	9.436
34.48	1.486
34.7	6.019
34.92	24.105
35.14	145.468
35.36	6.721
35.58	4.448
35.8	10.536
36.02	0.941
36.24	4.688
36.46	4.047
36.68	5.056
36.9	7.924
37.12	3.755
37.34	2.599
37.56	11.76
37.78	29.083
38	1.647
38.22	43.408
38.44	24.101
38.66	21.929
38.88	45.094
39.1	103.561
39.32	12.908
39.54	0.39
39.76	4.85
39.98	0.358
40.2	0.886
40.42	2.468
40.64	0.948
40.86	13.565
41.08	23.591
41.3	5.625
41.52	7.614
41.74	2.605
41.96	2.655
42.18	6.427
42.4	8.146
42.62	5.824
42.84	24.407
43.06	0.27
43.28	1.172
43.5	7.776
43.72	21.088
43.94	18.089
44.16	16.993
44.38	6.906
44.6	4.994
44.82	4.275
45.04	5.323
45.26	2.596
45.48	2.987
45.7	13.077
45.92	7.87
46.14	9.436
46.36	5.443
46.58	2.017
46.8	5.802
47.02	44.788
47.24	19.856
47.46	12.017
47.68	4.209
47.9	6.399
48.12	2.294
48.34	8.197
48.56	4.096
48.78	12.077
49	3.481
49.22	16.486
49.44	30.547
49.66	7.495
49.88	4.792
50.1	1.792
50.32	3.815
50.54	4.848
50.76	3.892
50.98	2.952
51.2	9.778
51.42	39.721
51.64	64.909
51.86	30.284
52.08	4.403
52.3	12.131
52.52	4.223
52.74	15.401
52.96	9.56
53.18	5.736
53.4	17.871
53.62	9.734
53.84	1.836
54.06	12.637
54.28	9.342
54.5	2.03
54.72	0.928
54.94	1.007
55.16	11.94
55.38	41.943
55.6	15.161
55.82	7.219
56.04	3.872
56.26	8.971
56.48	10.009
56.7	9.133
56.92	0.342
57.14	3.557
57.36	0.743
57.58	5.208
57.8	6.986
58.02	5.86
58.24	1.194
58.46	1.854
58.68	8.658
58.9	9.403
59.12	4.2
59.34	0.878
59.56	2.63
59.78	13.321
60	82.864
60.22	43.151
60.44	10.283
60.66	8.076
60.88	4.301
61.1	4.512
61.32	0.908
61.54	8.332
61.76	7.492
61.98	2.914
62.2	4.027
62.42	13.234
62.64	3.913
62.86	4.688
63.08	3.533
63.3	11.198
63.52	1.079
63.74	11.869
63.96	24.574
64.18	6.882
64.4	6.781
64.62	7.998
64.84	4.093
65.06	4.236
65.28	3.569
65.5	2.464
65.72	0.351
65.94	1.029
66.16	13.481
66.38	8.711
66.6	22.677
66.82	14.644
67.04	4.558
67.26	2.492
67.48	4.491
67.7	2.749
67.92	12.759
68.14	14.707
68.36	11.511
68.58	16.173
68.8	7.059
69.02	12.814
69.24	7.827
69.46	3.851
69.68	7.042
69.9	10.409
70.12	7.239
70.34	9.259
70.56	5.328
70.78	0.701
71	3.611
71.22	0.12
71.44	9.918
71.66	10.837
71.88	1.345
72.1	10.46
72.32	10.117
72.54	4.184
72.76	7.109
72.98	3.138
73.2	6.792
73.42	7.864
73.64	0.965
73.86	3.16
74.08	3.21
74.3	6.399
74.52	3.564
74.74	3.959
74.96	3.961
75.18	11.12
75.4	6.532
75.62	4.612
75.84	3.438
76.06	0.322
76.28	5.2
76.5	1.302
76.72	7.166
76.94	7.132
77.16	8.329
77.38	6.345
77.6	3.352
77.82	4.006
78.04	4.249
78.26	2.468
78.48	7.519
78.7	4.54
78.92	3.48
79.14	1.146
79.36	0.58
79.58	9.521
79.8	13.553
80.02	13.552
80.24	6.457
80.46	4.416
80.68	0.286
80.9	0.857
81.12	6.164
81.34	5.029
81.56	3.763
81.78	7.553
82	5.362
82.22	4.132
82.44	5.034
82.66	5.86
82.88	10.53
83.1	5.635
83.32	4.045
83.54	2.12
83.76	2.173
83.98	3.321
84.2	3.709
84.42	9.122
84.64	3.445
84.86	10.827
85.08	9.003
85.3	5.226
85.52	1.334
85.74	2.148
85.96	9.201
86.18	3.457
86.4	4.64
86.62	9.434
86.84	4.461
87.06	8.443
87.28	5.496
87.5	3.716
87.72	8.764
87.94	7.908
88.16	2.949
88.38	5.079
88.6	3.015
88.82	9.845
89.04	3.94
89.26	4.894
89.48	5.812
89.7	7.48
89.92	4.956
