Measurement: Powder, Xray Data XY Processed
Mineral: Priceite
Rruff sample: R050420
Ideal chemistry: Ca_2_B_5_O_7_(OH)_5_H_2_O
Locality: 20-Mule-Team Canyon, Death Valley, California, USA
Source: Marcus Origlieri
Description: White cryptocrystalline massive
Diffraction sample description: Powder
Measured chemistry: Ca_2.00_B_5.00_O_7_(OH)_5_Â·H_2_O
Cell parameters: a: 11.6251(3) b: 6.9773(3) c: 12.3534(9) alpha: 90. beta: 110.690(4) gamma: 90. volume: 937.39(5) crystal system: monoclinic
x	intensity
5	0
5.22	19.5759
5.44	10.0502
5.66	3.61932
5.88	1.27454
6.1	8.52885
6.32	5.21491
6.54	1.30451
6.76	6.62218
6.98	1.17046
7.2	10.0338
7.42	12.9656
7.64	8.30344
7.86	27.1712
8.08	441.527
8.3	21.7471
8.52	7.41951
8.74	16.7773
8.96	3.11319
9.18	1.89331
9.4	4.53611
9.62	5.06957
9.84	0.579777
10.06	2.93188
10.28	1.60403
10.5	5.75561
10.72	11.2542
10.94	2.31066
11.16	8.90443
11.38	7.33323
11.6	18.4224
11.82	8.59191
12.04	3.87113
12.26	3.17455
12.48	3.93197
12.7	5.18954
12.92	4.37611
13.14	8.35165
13.36	5.17781
13.58	2.65629
13.8	5.26586
14.02	5.9132
14.24	0.571785
14.46	4.20431
14.68	15.9952
14.9	50.9622
15.12	45.763
15.34	17.5916
15.56	23.5669
15.78	2.9904
16	4.40764
16.22	43.163
16.44	4.52637
16.66	0.924263
16.88	6.31469
17.1	0.571016
17.32	2.01948
17.54	2.25931
17.76	0.48952
17.98	11.5332
18.2	16.5169
18.42	2.58507
18.64	0.181278
18.86	1.61809
19.08	5.41367
19.3	7.25316
19.52	7.08955
19.74	29.5936
19.96	53.503
20.18	4.61119
20.4	5.05316
20.62	36.0205
20.84	23.3723
21.06	2.71969
21.28	5.10516
21.5	0.738722
21.72	5.06105
21.94	2.34077
22.16	13.6527
22.38	5.81313
22.6	3.51337
22.82	7.10697
23.04	7.12324
23.26	0.623826
23.48	4.10553
23.7	2.69484
23.92	7.8389
24.14	7.2926
24.36	11.748
24.58	252.134
24.8	5.92571
25.02	0.806755
25.24	8.41859
25.46	112.134
25.68	29.1653
25.9	0.342894
26.12	2.48385
26.34	29.9936
26.56	7.47728
26.78	16.2011
27	3.82402
27.22	14.4631
27.44	4.19145
27.66	8.67029
27.88	6.86008
28.1	0.992113
28.32	1.03174
28.54	6.76663
28.76	5.31498
28.98	5.89577
29.2	24.4246
29.42	12.6893
29.64	13.277
29.86	21.5559
30.08	73.9835
30.3	3.69839
30.52	0.463336
30.74	2.88036
30.96	65.7169
31.18	20.6756
31.4	26.097
31.62	6.35277
31.84	0.446339
32.06	23.0884
32.28	43.334
32.5	3.59741
32.72	13.8386
32.94	96.259
33.16	9.02803
33.38	9.43781
33.6	50.6003
33.82	4.57689
34.04	5.36559
34.26	1.65517
34.48	12.2187
34.7	31.0342
34.92	7.99462
35.14	5.93802
35.36	19.9986
35.58	6.35296
35.8	25.1184
36.02	6.06094
36.24	8.81884
36.46	74.7901
36.68	18.045
36.9	6.50073
37.12	15.3162
37.34	18.6972
37.56	15.7051
37.78	2.97938
38	4.95425
38.22	0.099832
38.44	3.7712
38.66	36.0619
38.88	30.6568
39.1	58.0208
39.32	4.30672
39.54	7.29969
39.76	3.46717
39.98	1.92511
40.2	13.3212
40.42	5.83567
40.64	18.5077
40.86	4.34187
41.08	14.7616
41.3	38.3955
41.52	97.1498
41.74	41.9043
41.96	43.3397
42.18	10.1458
42.4	7.49754
42.62	0.207881
42.84	1.95732
43.06	4.02039
43.28	11.9791
43.5	7.88218
43.72	7.32709
43.94	31.687
44.16	13.295
44.38	6.46603
44.6	11.0017
44.82	28.782
45.04	5.62354
45.26	5.91454
45.48	4.18269
45.7	1.66744
45.92	29.5959
46.14	14.6056
46.36	5.56874
46.58	43.4505
46.8	34.8623
47.02	36.3733
47.24	14.0164
47.46	10.8371
47.68	2.95328
47.9	12.0329
48.12	2.12588
48.34	4.10549
48.56	8.24993
48.78	21.4114
49	12.1425
49.22	18.9908
49.44	20.12
49.66	9.5222
49.88	6.23581
50.1	0.84988
50.32	56.5994
50.54	12.0171
50.76	31.5455
50.98	22.4983
51.2	6.47297
51.42	5.76994
51.64	13.1543
51.86	0.494422
52.08	21.8137
52.3	8.12766
52.52	9.48138
52.74	9.64749
52.96	26.4129
53.18	25.7428
53.4	6.18582
53.62	3.5484
53.84	10.9967
54.06	9.81303
54.28	18.0973
54.5	10.3641
54.72	5.61958
54.94	1.10384
55.16	3.09642
55.38	6.19982
55.6	11.2447
55.82	12.6838
56.04	1.30975
56.26	4.54831
56.48	3.30921
56.7	9.4648
56.92	0.541678
57.14	4.56364
57.36	7.38744
57.58	2.42611
57.8	3.4689
58.02	3.83878
58.24	0.620873
58.46	5.83495
58.68	12.2327
58.9	11.0956
59.12	3.11015
59.34	0.226659
59.56	5.37167
59.78	0.472136
60	7.68159
60.22	11.8935
60.44	6.33132
60.66	9.40243
60.88	3.48182
61.1	3.30154
61.32	1.4086
61.54	8.50187
61.76	6.53127
61.98	1.53892
62.2	2.68285
62.42	7.86088
62.64	6.93443
62.86	10.4715
63.08	6.45137
63.3	0.668173
63.52	7.27734
63.74	2.27559
63.96	4.17492
64.18	13.209
64.4	5.22501
64.62	6.0443
64.84	0.177026
65.06	12.4982
65.28	2.52721
65.5	1.61017
65.72	3.10092
65.94	6.1935
66.16	8.3578
66.38	7.48079
66.6	4.49465
66.82	1.38676
67.04	2.28096
67.26	10.1235
67.48	2.91279
67.7	2.706
67.92	2.34958
68.14	14.7989
68.36	7.62001
68.58	4.17856
68.8	2.86343
69.02	6.75338
69.24	0.817249
69.46	11.7768
69.68	12.787
69.9	7.99251
70.12	4.14578
70.34	3.35714
70.56	3.45722
70.78	6.677
71	5.55061
71.22	3.89044
71.44	3.84189
71.66	5.94767
71.88	6.1027
72.1	2.77875
72.32	3.22775
72.54	3.13345
72.76	7.06311
72.98	6.12183
73.2	4.00377
73.42	7.53582
73.64	5.46412
73.86	2.46002
74.08	6.57152
74.3	3.63704
74.52	5.64174
74.74	3.89886
74.96	10.0229
75.18	6.21158
75.4	0.290653
75.62	7.42747
75.84	12.557
76.06	2.78491
76.28	9.94979
76.5	4.89145
76.72	9.90535
76.94	10.8605
77.16	5.82577
77.38	1.80657
77.6	8.72366
77.82	12.5458
78.04	9.44996
78.26	3.19185
78.48	0.965232
78.7	4.99058
78.92	1.05801
79.14	2.9947
79.36	2.11084
79.58	4.96564
79.8	3.05053
80.02	0.083644
80.24	7.21483
80.46	1.35441
80.68	5.30669
80.9	7.5638
81.12	0.439922
81.34	4.36529
81.56	1.33953
81.78	4.1585
82	8.11964
82.22	5.89653
82.44	2.73685
82.66	5.71878
82.88	8.70795
83.1	12.7693
83.32	8.73103
83.54	5.91184
83.76	4.85266
83.98	8.01106
84.2	0.880023
84.42	1.04064
84.64	4.01717
84.86	5.91157
85.08	5.77706
85.3	0.501312
85.52	8.21617
85.74	3.03846
85.96	7.86007
86.18	13.745
86.4	9.67056
86.62	4.51644
86.84	3.54422
87.06	6.58607
87.28	3.78949
87.5	3.96501
87.72	6.23412
87.94	5.36915
88.16	11.9325
88.38	5.96031
88.6	2.08346
88.82	0.948279
89.04	3.27886
89.26	0.45993
89.48	3.46829
89.7	1.23973
89.92	3.9391
