Measurement: Powder, Xray Data XY Processed
Mineral: Priderite
Rruff sample: R060437
Ideal chemistry: K(Ti^4+^_7_Fe^3+^)O_16_
Locality: Walgridee Hills Intrusion, Western Australia, Australia
Source: Michael Scott
Description: Dark brown cleavage fragment
Diffraction sample description: Single crystal, powder profile is calculated
Measured chemistry: K_0.97_Ba_0.34_(Ti^4+^_6.71_Fe^3+^_1.01_Cr^3+^_0.01_Mg_0.22_)_Î£=8.04_O_16_
Cell parameters: a: 10.142(1) b: 10.142(1) c: 2.9622(3) alpha: 90 beta: 90 gamma: 90 volume: 304.7(2) crystal system: tetragonal
x	intensity
5	0
5.22	0
5.44	0
5.66	0
5.88	0
6.1	0
6.32	0
6.54	0
6.76	0
6.98	0
7.2	0
7.42	0
7.64	0
7.86	0
8.08	0
8.3	0
8.52	0
8.74	0
8.96	0
9.18	0
9.4	0
9.62	0
9.84	0
10.06	0
10.28	0
10.5	0
10.72	0
10.94	0
11.16	0
11.38	0
11.6	0
11.82	0
12.04	0
12.26	0.957
12.48	0.002
12.7	0
12.92	0
13.14	0
13.36	0
13.58	0
13.8	0
14.02	0
14.24	0
14.46	0
14.68	0
14.9	0
15.12	0
15.34	0
15.56	0
15.78	0
16	0
16.22	0
16.44	0
16.66	0
16.88	0
17.1	0
17.32	0
17.54	16.815
17.76	0
17.98	0
18.2	0
18.42	0
18.64	0
18.86	0
19.08	0
19.3	0
19.52	0
19.74	0
19.96	0
20.18	0
20.4	0
20.62	0
20.84	0
21.06	0
21.28	0
21.5	0
21.72	0
21.94	0
22.16	0
22.38	0
22.6	0
22.82	0
23.04	0
23.26	0
23.48	0
23.7	0
23.92	0
24.14	0
24.36	0
24.58	0
24.8	11.459
25.02	0
25.24	0
25.46	0
25.68	0
25.9	0
26.12	0
26.34	0
26.56	0
26.78	0
27	0
27.22	0
27.44	0
27.66	0.004
27.88	44.381
28.1	0
28.32	0
28.54	0
28.76	0
28.98	0
29.2	0
29.42	0
29.64	0
29.86	0
30.08	0
30.3	0
30.52	0
30.74	0
30.96	0
31.18	0
31.4	1.21
31.62	0.003
31.84	0
32.06	0
32.28	0
32.5	0
32.72	0
32.94	0
33.16	0
33.38	0
33.6	0
33.82	0
34.04	0
34.26	0
34.48	0
34.7	0
34.92	0
35.14	0
35.36	10.295
35.58	0.006
35.8	0
36.02	0
36.24	25.017
36.46	0
36.68	0
36.9	0
37.12	0
37.34	0
37.56	1.057
37.78	0.028
38	0
38.22	0
38.44	0
38.66	0
38.88	0
39.1	0
39.32	0
39.54	0
39.76	5.49
39.98	0
40.2	0
40.42	17.449
40.64	0.745
40.86	0
41.08	0
41.3	0
41.52	0
41.74	0
41.96	0
42.18	0
42.4	0
42.62	0
42.84	0
43.06	0
43.28	0
43.5	0
43.72	0
43.94	0
44.16	0
44.38	3.584
44.6	0.009
44.82	0
45.04	0
45.26	0
45.48	0.131
45.7	3.39
45.92	0
46.14	0
46.36	0
46.58	0
46.8	0
47.02	0
47.24	0
47.46	0
47.68	0
47.9	0.004
48.12	7.153
48.34	0
48.56	0
48.78	0
49	0
49.22	0
49.44	0
49.66	0
49.88	0
50.1	0
50.32	0
50.54	0
50.76	0.001
50.98	0.433
51.2	0
51.42	0
51.64	0
51.86	0
52.08	0
52.3	0
52.52	0.394
52.74	0.694
52.96	0
53.18	0
53.4	0
53.62	0
53.84	0
54.06	0
54.28	5.77
54.5	0.01
54.72	0.101
54.94	1.375
55.16	0
55.38	0
55.6	0
55.82	0
56.04	0
56.26	0
56.48	0
56.7	0
56.92	0
57.14	0
57.36	0.27
57.58	0.665
57.8	0
58.02	20.004
58.24	0.417
58.46	0
58.68	0
58.9	0
59.12	0
59.34	0
59.56	0
59.78	0
60	0
60.22	0
60.44	0
60.66	0
60.88	0
61.1	0
61.32	0
61.54	0
61.76	0
61.98	0
62.2	0
62.42	0
62.64	4.18
62.86	3.644
63.08	0
63.3	0
63.52	0
63.74	0
63.96	0.315
64.18	1.785
64.4	0.111
64.62	0
64.84	0.003
65.06	0.157
65.28	0.003
65.5	0.011
65.72	0.12
65.94	0.001
66.16	0
66.38	0.693
66.6	0.679
66.82	0.081
67.04	1.166
67.26	0.025
67.48	0
67.7	0
67.92	0
68.14	0
68.36	0.001
68.58	0.015
68.8	0.001
69.02	0
69.24	0
69.46	0
69.68	0.018
69.9	5.239
70.12	2.32
70.34	0
70.56	0.018
70.78	0.241
71	0.027
71.22	0
71.44	0
71.66	0
71.88	0
72.1	0
72.32	0
72.54	0.276
72.76	0.18
72.98	0
73.2	0
73.42	0
73.64	0
73.86	0
74.08	2.274
74.3	1.104
74.52	0
74.74	0.002
74.96	0.001
75.18	0.001
75.4	0.893
75.62	0.442
75.84	0
76.06	0
76.28	0
76.5	0
76.72	0.085
76.94	0.032
77.16	0.002
77.38	0
77.6	0.21
77.82	0.128
78.04	0
78.26	0
78.48	0
78.7	0
78.92	0
79.14	0
79.36	0
79.58	0
79.8	0
80.02	0
80.24	1.938
80.46	0.694
80.68	0.263
80.9	0.571
81.12	0.47
81.34	0
81.56	1.082
81.78	0.248
82	0
82.22	0
82.44	0
82.66	0
82.88	0
83.1	0
83.32	0.197
83.54	0.02
83.76	0.057
83.98	0
84.2	0
84.42	0
84.64	0
84.86	0.308
85.08	0.132
85.3	0
85.52	0.168
85.74	0.008
85.96	0.007
86.18	0.263
86.4	0.085
86.62	0
86.84	0.6
87.06	0.019
87.28	0.065
87.5	4.755
87.72	1.162
87.94	0
88.16	0
88.38	0
88.6	0.025
88.82	0.026
89.04	0.221
89.26	0
89.48	0
89.7	0
89.92	0
