Measurement: Powder, Xray Data XY Processed
Mineral: Proustite
Rruff sample: R060356
Ideal chemistry: Ag^1+^_3_As^3+^S^2-^_3_
Locality: Chanarcillo, Atacama Province, Chile
Source: Herb Obodda
Description: Red scalenohedral crystal
Diffraction sample description: Powder
Measured chemistry: Ag_3.01_As_0.99_S_3.00_
Cell parameters: a: 10.8418(8) b: 10.8418(8) c: 8.720(1) alpha: 90. beta: 90. gamma: 120. volume: 887.7(1) crystal system: hexagonal
x	intensity
5	0
5.22	2.888
5.44	7.98
5.66	4.159
5.88	4.505
6.1	4.773
6.32	4.059
6.54	1.822
6.76	2.351
6.98	4.505
7.2	3.633
7.42	3.807
7.64	3.06
7.86	4.018
8.08	0.012
8.3	5.046
8.52	1.07
8.74	2.085
8.96	3.092
9.18	0.154
9.4	2.216
9.62	1.248
9.84	2.235
10.06	1.188
10.28	0.633
10.5	3.396
10.72	6.457
10.94	2.468
11.16	1.48
11.38	6.494
11.6	4.53
11.82	3.519
12.04	3.503
12.26	2.495
12.48	2.409
12.7	0.32
12.92	0.302
13.14	2.322
13.36	3.311
13.58	2.305
13.8	1.382
14.02	3.257
14.24	1.296
14.46	1.337
14.68	3.38
14.9	1.382
15.12	0.386
15.34	3.319
15.56	1.378
15.78	6.418
16	2.414
16.22	1.421
16.44	5.561
16.66	2.607
16.88	4.545
17.1	0.548
17.32	2.592
17.54	1.63
17.76	1.738
17.98	1.671
18.2	3.572
18.42	2.476
18.64	0.623
18.86	4.3
19.08	0.195
19.3	4.175
19.52	3.185
19.74	1.138
19.96	7.194
20.18	2.119
20.4	1.18
20.62	0.76
20.84	0.294
21.06	0.651
21.28	1.287
21.5	0.261
21.72	3.18
21.94	2.058
22.16	1.026
22.38	3.9
22.6	1.825
22.82	2.684
23.04	1.8
23.26	0.755
23.48	3.764
23.7	0.835
23.92	6.917
24.14	5.938
24.36	0.966
24.58	2.959
24.8	1.942
25.02	3.99
25.24	0.019
25.46	2.744
25.68	0.635
25.9	4.623
26.12	1.219
26.34	2.933
26.56	0.586
26.78	1.218
27	1.854
27.22	9.485
27.44	12.123
27.66	9.826
27.88	2.646
28.1	14.436
28.32	8.34
28.54	5.679
28.76	6.865
28.98	4.242
29.2	3.581
29.42	0.016
29.64	2.374
29.86	1.682
30.08	6.91
30.3	4.107
30.52	3.395
30.74	2.36
30.96	4.198
31.18	2.16
31.4	7.898
31.62	4.62
31.84	0.579
32.06	1.295
32.28	2.105
32.5	4.997
32.72	20.857
32.94	3.229
33.16	5.163
33.38	5.128
33.6	4.091
33.82	1.043
34.04	1.055
34.26	1.215
34.48	0.548
34.7	5.389
34.92	9.25
35.14	16.952
35.36	17.469
35.58	4.438
35.8	3.431
36.02	11.813
36.24	16.057
36.46	7.431
36.68	2.733
36.9	1.054
37.12	8.44
37.34	3.797
37.56	6.138
37.78	2.528
38	3.623
38.22	2.709
38.44	1.551
38.66	3.421
38.88	1.55
39.1	5.473
39.32	1.452
39.54	4.393
39.76	2.398
39.98	4.299
40.2	4.205
40.42	9.303
40.64	10.363
40.86	0.699
41.08	1.368
41.3	3.344
41.52	1.236
41.74	6.101
41.96	0.013
42.18	3.865
42.4	8.696
42.62	3.519
42.84	2.304
43.06	1.181
43.28	4.123
43.5	4.109
43.72	8.012
43.94	3.267
44.16	1.451
44.38	10.5
44.6	0.585
44.82	1.625
45.04	3.66
45.26	3.707
45.48	3.603
45.7	1.672
45.92	1.549
46.14	8.418
46.36	4.261
46.58	2.113
46.8	3.97
47.02	9.88
47.24	11.836
47.46	3.929
47.68	7.048
47.9	0.998
48.12	0.036
48.34	4.985
48.56	1.075
48.78	3.13
49	14.142
49.22	4.196
49.44	4.37
49.66	0.597
49.88	0.459
50.1	2.448
50.32	3.668
50.54	5.768
50.76	3.931
50.98	2.091
51.2	4.095
51.42	1.171
51.64	5.231
51.86	4.137
52.08	4.095
52.3	7.041
52.52	4.908
52.74	1.732
52.96	6.707
53.18	2.67
53.4	4.536
53.62	3.549
53.84	3.423
54.06	0.314
54.28	2.283
54.5	4.291
54.72	7.389
54.94	6.422
55.16	7.506
55.38	7.493
55.6	6.387
55.82	1.55
56.04	2.472
56.26	3.7
56.48	4.732
56.7	2.894
56.92	0.035
57.14	1.856
57.36	3.837
57.58	1.7
57.8	2.629
58.02	6.587
58.24	2.322
58.46	5.172
58.68	2.067
58.9	1.184
59.12	3.253
59.34	6.213
59.56	4.302
59.78	5.488
60	6.641
60.22	3.733
60.44	4.785
60.66	0.138
60.88	4.913
61.1	1.914
61.32	2.778
61.54	3.847
61.76	0.84
61.98	4.745
62.2	5.762
62.42	7.819
62.64	0.955
62.86	2.937
63.08	0.94
63.3	2.012
63.52	0.975
63.74	3.984
63.96	3.926
64.18	6.059
64.4	2.058
64.62	5.046
64.84	0.795
65.06	5.864
65.28	3.879
65.5	0.964
65.72	4.033
65.94	5.031
66.16	2.971
66.38	2.99
66.6	6.855
66.82	1.95
67.04	0.89
67.26	1.997
67.48	8.926
67.7	8.974
67.92	2.998
68.14	2.938
68.36	0.131
68.58	3.788
68.8	3.729
69.02	1.649
69.24	7.47
69.46	4.328
69.68	4.272
69.9	4.262
70.12	2.192
70.34	10.153
70.56	4.085
70.78	4.406
71	2.677
71.22	5.741
71.44	4.902
71.66	4.015
71.88	5.233
72.1	3.273
72.32	5.287
72.54	2.309
72.76	4.315
72.98	0.573
73.2	2.111
73.42	5.047
73.64	4.044
73.86	3.196
74.08	0.2
74.3	4.144
74.52	7.157
74.74	0.394
74.96	8.402
75.18	5.356
75.4	2.369
75.62	2.33
75.84	1.384
76.06	2.23
76.28	5.291
76.5	2.326
76.72	5.333
76.94	4.273
77.16	0.324
77.38	10.317
77.6	1.253
77.82	8.235
78.04	0.272
78.26	1.207
78.48	3.155
78.7	4.097
78.92	1.974
79.14	1.971
79.36	0.841
79.58	1.718
79.8	3.781
80.02	3.817
80.24	0.183
80.46	2.775
80.68	2.786
80.9	5.817
81.12	1.108
81.34	2.835
81.56	0.026
81.78	6.049
82	5.115
82.22	4.042
82.44	4.949
82.66	4.941
82.88	1.979
83.1	6.117
83.32	0.963
83.54	1.985
83.76	4.04
83.98	5.896
84.2	2.158
84.42	0.755
84.64	4.75
84.86	1.184
85.08	2.885
85.3	6.886
85.52	5.76
85.74	1.846
85.96	0.063
86.18	0.933
86.4	0.924
86.62	3.153
86.84	3.177
87.06	1.194
87.28	4.148
87.5	7.089
87.72	4.099
87.94	5.108
88.16	5.142
88.38	2.919
88.6	6.887
88.82	2.899
89.04	4.891
89.26	0.041
89.48	3.967
89.7	1.801
89.92	1.724
