Measurement: Powder, Xray Data XY Processed
Mineral: Pseudomalachite
Rruff sample: R040175
Ideal chemistry: Cu^2+^_5_(P^5+^O_4_)_2_(OH)_4_
Locality: West Bogan mine, Tottenham, Australia
Source: University of Arizona Mineral Museum
Description: Green massive in a botryoidal shape
Diffraction sample description: Powder
Measured chemistry: Cu_5.00_(P_1.00_O_4_)_2_(OH_.98_F_.02_)_4_
Cell parameters: a: 4.4780(2) b: 5.7508(1) c: 17.0435(7) alpha: 90. beta: 91.061(2) gamma: 90. volume: 438.84(1) crystal system: monoclinic
x	intensity
5	0
5.22	19.0418
5.44	19.0155
5.66	21.9386
5.88	39.6327
6.1	12.7549
6.32	0.430153
6.54	5.90927
6.76	11.6819
6.98	14.4003
7.2	27.928
7.42	18.3042
7.64	34.4094
7.86	13.7211
8.08	2.28522
8.3	21.9151
8.52	16.4479
8.74	19.5952
8.96	11.8822
9.18	18.8041
9.4	20.648
9.62	21.668
9.84	2.92476
10.06	11.0898
10.28	28.6458
10.5	10.4328
10.72	6.50318
10.94	8.05336
11.16	11.8412
11.38	16.6954
11.6	9.39291
11.82	27.1399
12.04	45.2684
12.26	23.1795
12.48	19.9461
12.7	26.2571
12.92	17.4427
13.14	15.5768
13.36	18.3322
13.58	17.5195
13.8	22.1388
14.02	11.3375
14.24	26.5394
14.46	22.1912
14.68	25.1693
14.9	16.1201
15.12	34.4793
15.34	11.2094
15.56	14.8944
15.78	13.6966
16	25.2867
16.22	8.29131
16.44	18.4623
16.66	25.3413
16.88	27.8723
17.1	6.34704
17.32	17.5506
17.54	19.7766
17.76	8.55804
17.98	24.1043
18.2	17.0394
18.42	17.976
18.64	168.488
18.86	1.97186
19.08	21.776
19.3	19.0806
19.52	19.0787
19.74	87.1024
19.96	353.244
20.18	40.562
20.4	3.24444
20.62	15.6895
20.84	31.5162
21.06	14.5681
21.28	0.763947
21.5	0.673027
21.72	7.74218
21.94	12.1429
22.16	22.0973
22.38	1.87248
22.6	10.0644
22.82	6.04153
23.04	23.1628
23.26	1.58765
23.48	28.1576
23.7	12.2392
23.92	21.6518
24.14	33.7036
24.36	16.5133
24.58	3.28636
24.8	18.9166
25.02	5.91773
25.24	8.39641
25.46	10.5683
25.68	179.831
25.9	147.257
26.12	25.6368
26.34	23.8109
26.56	8.17154
26.78	8.3558
27	31.5135
27.22	57.0426
27.44	38.3899
27.66	6.53787
27.88	19.3262
28.1	1.56222
28.32	8.24663
28.54	32.267
28.76	164.118
28.98	11.452
29.2	188.719
29.42	33.7079
29.64	64.9198
29.86	27.8181
30.08	233.944
30.3	13.5431
30.52	156.795
30.74	15.9596
30.96	5.63771
31.18	87.0786
31.4	17.0013
31.62	64.5973
31.84	2.62215
32.06	2.24815
32.28	0.22789
32.5	10.6511
32.72	38.8425
32.94	143.726
33.16	52.3096
33.38	9.43977
33.6	27.4909
33.82	24.9916
34.04	20.3616
34.26	10.4719
34.48	12.7671
34.7	12.3658
34.92	8.1875
35.14	25.871
35.36	31.0695
35.58	35.2143
35.8	4.73934
36.02	2.03966
36.24	26.0421
36.46	66.531
36.68	44.2246
36.9	200.248
37.12	96.9977
37.34	57.4473
37.56	161.184
37.78	181.473
38	19.3091
38.22	14.062
38.44	21.6577
38.66	70.7708
38.88	156.713
39.1	28.2612
39.32	4.24748
39.54	7.83336
39.76	13.8529
39.98	14.7071
40.2	55.8401
40.42	158.927
40.64	47.4256
40.86	51.1675
41.08	61.4212
41.3	26.7837
41.52	20.0706
41.74	19.2782
41.96	7.53285
42.18	2.40229
42.4	27.7593
42.62	23.2416
42.84	9.57142
43.06	1.46324
43.28	73.0624
43.5	8.70895
43.72	16.2193
43.94	20.084
44.16	3.35393
44.38	24.2353
44.6	11.7173
44.82	25.435
45.04	60.3402
45.26	10.5708
45.48	19.6591
45.7	25.6653
45.92	10.5793
46.14	24.6108
46.36	51.8215
46.58	38.6979
46.8	34.469
47.02	23.5778
47.24	4.18037
47.46	0.00634
47.68	16.6401
47.9	10.3388
48.12	7.07035
48.34	13.481
48.56	16.0166
48.78	27.6381
49	42.3318
49.22	32.8409
49.44	12.3209
49.66	16.8971
49.88	14.89
50.1	15.4648
50.32	19.7493
50.54	11.2866
50.76	23.0717
50.98	28.9057
51.2	7.86294
51.42	17.3442
51.64	34.1721
51.86	62.8886
52.08	28.9349
52.3	19.8319
52.52	46.2065
52.74	103.389
52.96	64.5671
53.18	24.9346
53.4	13.3946
53.62	19.6996
53.84	15.6808
54.06	4.8005
54.28	20.2627
54.5	24.4389
54.72	21.6206
54.94	65.4343
55.16	14.8595
55.38	19.5623
55.6	13.7157
55.82	6.73066
56.04	13.3661
56.26	39.2326
56.48	29.0143
56.7	58.2738
56.92	37.1756
57.14	22.3126
57.36	8.52037
57.58	25.0571
57.8	20.5063
58.02	24.3751
58.24	22.9021
58.46	24.6218
58.68	31.5388
58.9	22.0114
59.12	19.5247
59.34	85.4448
59.56	37.8695
59.78	12.5701
60	38.673
60.22	3.59827
60.44	12.4523
60.66	24.7878
60.88	26.6536
61.1	24.9192
61.32	10.0573
61.54	42.8805
61.76	33.95
61.98	23.1508
62.2	42.1737
62.42	16.2606
62.64	13.6527
62.86	8.22775
63.08	20.362
63.3	12.7565
63.52	31.5967
63.74	17.5061
63.96	15.1301
64.18	22.5903
64.4	3.66039
64.62	10.3311
64.84	30.4486
65.06	80.108
65.28	51.7419
65.5	7.55475
65.72	38.9966
65.94	39.8062
66.16	15.7457
66.38	18.1197
66.6	3.84779
66.82	0.366531
67.04	28.1973
67.26	22.1288
67.48	13.0588
67.7	16.3465
67.92	7.67656
68.14	8.37564
68.36	11.7213
68.58	30.4332
68.8	26.2965
69.02	30.3076
69.24	14.1024
69.46	43.6637
69.68	23.7774
69.9	29.207
70.12	23.4065
70.34	7.17248
70.56	8.47452
70.78	3.89642
71	25.7114
71.22	21.5862
71.44	0.490677
71.66	19.6942
71.88	11.8574
72.1	4.36794
72.32	2.95012
72.54	16.4336
72.76	13.0599
72.98	5.61158
73.2	7.12405
73.42	18.6994
73.64	21.8641
73.86	25.452
74.08	9.29456
74.3	11.5194
74.52	42.4113
74.74	28.9744
74.96	6.08397
75.18	28.3133
75.4	24.9585
75.62	7.76698
75.84	18.942
76.06	20.8657
76.28	18.838
76.5	24.7682
76.72	25.2031
76.94	8.00817
77.16	13.2145
77.38	15.4112
77.6	24.5615
77.82	8.02424
78.04	30.5391
78.26	22.9326
78.48	31.1307
78.7	6.15192
78.92	27.5238
79.14	22.7541
79.36	24.55
79.58	4.65029
79.8	10.1842
80.02	15.219
80.24	30.1703
80.46	18.7779
80.68	5.66913
80.9	15.486
81.12	19.8276
81.34	13.2962
81.56	9.2238
81.78	14.991
82	13.6845
82.22	19.3955
82.44	31.8906
82.66	20.0266
82.88	3.7034
83.1	36.2876
83.32	14.5222
83.54	33.4482
83.76	14.4401
83.98	10.2388
84.2	19.4656
84.42	12.7283
84.64	23.397
84.86	18.314
85.08	26.1933
85.3	28.5886
85.52	15.2121
85.74	23.7599
85.96	24.5283
86.18	9.09093
86.4	16.0257
86.62	10.3309
86.84	9.2929
87.06	1.75847
87.28	9.73651
87.5	6.74448
87.72	13.6687
87.94	14.3857
88.16	22.1106
88.38	23.115
88.6	5.23716
88.82	5.33788
89.04	41.7423
89.26	14.8786
89.48	33.2846
89.7	34.7918
89.92	30.753
