Measurement: Powder, Xray Data XY Processed
Mineral: Pseudobrookite
Rruff sample: R050563
Ideal chemistry: (Fe^3+^_2_Ti^4+^)O_5_
Locality: Thomas Range, Juab County, Utah, USA
Source: Dave Bunk Minerals
Description: Black elongated prismatic crystals
Diffraction sample description: Single crystal, powder profile is calculated
Measured chemistry: (Fe^3+^_1.85_Mn^3+^_0.12_Al_0.03_)_Î£=2_Ti_1.00_O_5_
Cell parameters: a: 9.757(4) b: 9.942(4) c: 3.726(1) alpha: 90 beta: 90 gamma: 90 volume: 361.4(2) crystal system: orthorhombic
x	intensity
5	0
5.22	0
5.44	0
5.66	0
5.88	0
6.1	0
6.32	0
6.54	0
6.76	0
6.98	0
7.2	0
7.42	0
7.64	0
7.86	0
8.08	0
8.3	0
8.52	0
8.74	0
8.96	0
9.18	0
9.4	0
9.62	0
9.84	0
10.06	0
10.28	0
10.5	0
10.72	0
10.94	0
11.16	0
11.38	0
11.6	0
11.82	0
12.04	0
12.26	0
12.48	0
12.7	0
12.92	0
13.14	0
13.36	0
13.58	0
13.8	0
14.02	0
14.24	0
14.46	0
14.68	0
14.9	0
15.12	0
15.34	0
15.56	0
15.78	0
16	0
16.22	0
16.44	0
16.66	0
16.88	0
17.1	0
17.32	0
17.54	0
17.76	1.671
17.98	0.011
18.2	22.694
18.42	0
18.64	0
18.86	0
19.08	0
19.3	0
19.52	0
19.74	0
19.96	0
20.18	0.254
20.4	0.041
20.62	0
20.84	0
21.06	0
21.28	0
21.5	0
21.72	0
21.94	0
22.16	0
22.38	0
22.6	0
22.82	0
23.04	0
23.26	0
23.48	0
23.7	0
23.92	0
24.14	0
24.36	0
24.58	0
24.8	0
25.02	0
25.24	0
25.46	0.106
25.68	14.202
25.9	0
26.12	0
26.34	0
26.56	0
26.78	0
27	0
27.22	0.008
27.44	0
27.66	0
27.88	0
28.1	0
28.32	0
28.54	0
28.76	0
28.98	0
29.2	0
29.42	0
29.64	0
29.86	0
30.08	0
30.3	0
30.52	0
30.74	0
30.96	0
31.18	0
31.4	3.819
31.62	0
31.84	0
32.06	0
32.28	0
32.5	0.003
32.72	29.9
32.94	0
33.16	0
33.38	0
33.6	0
33.82	0
34.04	0
34.26	0
34.48	0
34.7	0
34.92	0
35.14	0
35.36	0
35.58	0
35.8	0
36.02	0
36.24	0.002
36.46	0
36.68	7.164
36.9	3.329
37.12	0
37.34	0.084
37.56	3.843
37.78	0.747
38	0.847
38.22	0
38.44	0
38.66	0
38.88	0
39.1	0
39.32	0
39.54	0
39.76	0
39.98	0
40.2	0
40.42	0
40.64	0.966
40.86	1.609
41.08	0.119
41.3	6.877
41.52	0
41.74	0
41.96	0
42.18	0
42.4	0
42.62	0
42.84	0
43.06	0
43.28	0
43.5	0
43.72	0
43.94	0
44.16	0
44.38	0
44.6	0
44.82	0.673
45.04	0
45.26	0
45.48	0
45.7	0
45.92	0.021
46.14	10.112
46.36	0.853
46.58	0
46.8	0
47.02	0
47.24	0
47.46	0
47.68	0
47.9	0
48.12	0
48.34	0
48.56	0
48.78	3.44
49	9.907
49.22	0
49.44	9.308
49.66	0.733
49.88	0
50.1	0
50.32	0
50.54	0
50.76	0
50.98	0
51.2	0
51.42	0
51.64	0
51.86	0
52.08	0
52.3	0.092
52.52	3.976
52.74	0.206
52.96	1.322
53.18	0.32
53.4	1.015
53.62	0.051
53.84	0.599
54.06	0.001
54.28	0
54.5	0
54.72	0
54.94	0
55.16	0
55.38	7.003
55.6	2.086
55.82	0.003
56.04	0.114
56.26	5.996
56.48	4.699
56.7	0.553
56.92	0
57.14	0
57.36	2.314
57.58	0.39
57.8	0
58.02	0
58.24	0
58.46	0
58.68	0.002
58.9	0.158
59.12	0
59.34	0
59.56	0
59.78	0.878
60	15.91
60.22	1.429
60.44	1.248
60.66	0.001
60.88	0
61.1	0
61.32	0
61.54	0
61.76	0
61.98	4.678
62.2	0.917
62.42	0.007
62.64	0.463
62.86	0.988
63.08	0
63.3	0
63.52	0.129
63.74	1.405
63.96	0.083
64.18	0
64.4	0
64.62	0
64.84	0
65.06	0
65.28	0.004
65.5	0.194
65.72	3.673
65.94	3.04
66.16	0
66.38	0
66.6	0
66.82	0
67.04	0
67.26	0
67.48	0
67.7	0
67.92	0
68.14	0.003
68.36	1.175
68.58	0.588
68.8	0.941
69.02	0.313
69.24	0.001
69.46	4.006
69.68	2.276
69.9	0
70.12	0
70.34	0
70.56	0
70.78	0
71	0
71.22	0
71.44	0
71.66	0.136
71.88	0.11
72.1	2.655
72.32	1.909
72.54	0.574
72.76	0
72.98	0.623
73.2	0.445
73.42	0
73.64	0
73.86	0
74.08	0
74.3	0
74.52	0.091
74.74	0.048
74.96	0
75.18	4.328
75.4	2.484
75.62	0.155
75.84	0
76.06	0
76.28	0
76.5	0.007
76.72	0.008
76.94	4.892
77.16	2.347
77.38	1.663
77.6	0.969
77.82	0.115
78.04	0.014
78.26	0.01
78.48	0.004
78.7	1.272
78.92	0.611
79.14	0
79.36	0
79.58	0.011
79.8	0.246
80.02	0.051
80.24	0.188
80.46	0.144
80.68	0.138
80.9	0.088
81.12	0.78
81.34	0.268
81.56	0
81.78	0
82	0
82.22	0.007
82.44	0.002
82.66	0.005
82.88	0
83.1	0.155
83.32	0.018
83.54	0.172
83.76	0.114
83.98	0.228
84.2	1.915
84.42	0.846
84.64	0.061
84.86	0.055
85.08	0
85.3	0
85.52	0
85.74	0
85.96	0.001
86.18	0
86.4	0
86.62	0
86.84	0
87.06	0
87.28	0
87.5	0
87.72	0
87.94	0.008
88.16	1.874
88.38	0.558
88.6	0.021
88.82	0.719
89.04	0.045
89.26	0.015
89.48	0.087
89.7	0.35
89.92	0.012
