Measurement: Powder, Xray Data XY Processed
Mineral: Pumpellyite-(Mg)
Rruff sample: R070130
Ideal chemistry: Ca_2_MgAl_2_(SiO_4_)(Si_2_O_7_)(OH)_2_H_2_O
Locality: Isle Royale National Park, Lake Superior,  Keweenaw County, Michigan, USA
Source: Michael Scott
Description: Green waterworn massive pebble
Diffraction sample description: Powder
Cell parameters: a: 8.8277(4) b: 5.9084(4) c: 19.1254(6) alpha: 90 beta: 97.444(4) gamma: 90 volume: 989.12(6) crystal system: monoclinic
x	intensity
5	0
5.22	7.62651
5.44	5.60628
5.66	15.3913
5.88	34.6887
6.1	83.1283
6.32	47.0623
6.54	17.4652
6.76	5.4719
6.98	4.58814
7.2	19.7622
7.42	3.2806
7.64	8.22742
7.86	1.19981
8.08	5.70085
8.3	14.4243
8.52	0.923069
8.74	7.54351
8.96	15.879
9.18	5.37317
9.4	21.277
9.62	7.75011
9.84	18.3267
10.06	4.19655
10.28	9.4579
10.5	16.8954
10.72	6.28141
10.94	6.35471
11.16	1.94087
11.38	5.83911
11.6	1.61138
11.82	4.60266
12.04	22.3126
12.26	30.0609
12.48	16.9833
12.7	1.33116
12.92	15.1663
13.14	7.43147
13.36	12.6561
13.58	2.89979
13.8	20.8305
14.02	12.2953
14.24	6.00134
14.46	10.4041
14.68	24.6272
14.9	19.0995
15.12	14.9098
15.34	6.41545
15.56	8.32746
15.78	0.891275
16	17.0362
16.22	12.6027
16.44	11.6401
16.66	16.3697
16.88	11.8336
17.1	23.3635
17.32	2.22515
17.54	7.91945
17.76	11.0198
17.98	3.95199
18.2	12.7939
18.42	24.8358
18.64	39.3605
18.86	27.2506
19.08	84.1505
19.3	21.5963
19.52	2.3907
19.74	10.0164
19.96	5.95237
20.18	32.3765
20.4	17.3957
20.62	10.9884
20.84	9.9023
21.06	8.039
21.28	27.7747
21.5	14.3616
21.72	4.76812
21.94	12.1207
22.16	20.3607
22.38	10.0273
22.6	6.88936
22.82	5.5553
23.04	11.2365
23.26	20.6577
23.48	156.766
23.7	12.4586
23.92	0.050552
24.14	14.7011
24.36	1.02641
24.58	5.99634
24.8	21.7769
25.02	28.6563
25.24	18.4285
25.46	10.0715
25.68	8.64603
25.9	30.7481
26.12	5.10244
26.34	12.662
26.56	6.99044
26.78	3.24101
27	13.642
27.22	8.15173
27.44	12.4389
27.66	6.34729
27.88	22.0526
28.1	12.2445
28.32	15.371
28.54	9.5572
28.76	10.5684
28.98	6.48222
29.2	2.25784
29.42	7.69136
29.64	27.6093
29.86	0.651894
30.08	8.92829
30.3	49.5829
30.52	17.0869
30.74	109.607
30.96	140.28
31.18	14.685
31.4	4.56478
31.62	3.45726
31.84	19.6052
32.06	14.8299
32.28	3.56411
32.5	16.4573
32.72	135.263
32.94	16.3794
33.16	10.5052
33.38	23.4123
33.6	1.55124
33.82	15.8471
34.04	95.8786
34.26	21.8797
34.48	6.91392
34.7	16.3135
34.92	18.1643
35.14	12.0447
35.36	13.5687
35.58	8.45336
35.8	60.9545
36.02	8.44942
36.24	9.17515
36.46	7.33606
36.68	79.8235
36.9	29.3476
37.12	21.7166
37.34	3.9308
37.56	2.92807
37.78	0.740803
38	21.3336
38.22	11.6699
38.44	3.4791
38.66	36.7152
38.88	21.3361
39.1	16.5036
39.32	17.7545
39.54	11.3488
39.76	8.68961
39.98	12.0122
40.2	15.368
40.42	3.72582
40.64	9.0546
40.86	83.0979
41.08	20.2113
41.3	1.49891
41.52	2.28635
41.74	5.97057
41.96	3.91791
42.18	11.6763
42.4	5.48595
42.62	20.2161
42.84	21.5915
43.06	9.43055
43.28	11.6375
43.5	13.1257
43.72	20.3642
43.94	0.644146
44.16	11.0132
44.38	1.70595
44.6	7.81372
44.82	10.9522
45.04	21.9902
45.26	26.8722
45.48	11.7485
45.7	1.75319
45.92	8.68358
46.14	8.82204
46.36	12.4876
46.58	13.3445
46.8	18.6543
47.02	6.29203
47.24	2.40659
47.46	9.66106
47.68	0.761154
47.9	15.8705
48.12	13.5577
48.34	19.8578
48.56	5.48499
48.78	4.22185
49	9.10986
49.22	17.6764
49.44	13.7173
49.66	17.8577
49.88	10.5903
50.1	2.11001
50.32	16.7538
50.54	5.32127
50.76	22.8224
50.98	18.4398
51.2	11.6221
51.42	18.9458
51.64	16.5992
51.86	5.35168
52.08	6.55052
52.3	7.92555
52.52	10.1314
52.74	21.2402
52.96	28.5452
53.18	17.974
53.4	3.99067
53.62	16.5631
53.84	9.66229
54.06	8.58291
54.28	4.10458
54.5	3.62384
54.72	2.37544
54.94	12.8081
55.16	22.4307
55.38	15.1511
55.6	1.24954
55.82	6.79831
56.04	13.2501
56.26	8.9913
56.48	16.0984
56.7	5.09051
56.92	8.1315
57.14	11.7907
57.36	0.661747
57.58	19.9949
57.8	49.3924
58.02	43.0723
58.24	11.5043
58.46	24.6315
58.68	26.5717
58.9	6.18471
59.12	4.13171
59.34	12.2236
59.56	30.6973
59.78	2.19427
60	28.5315
60.22	24.728
60.44	15.5665
60.66	8.91453
60.88	11.8721
61.1	5.76059
61.32	14.3625
61.54	14.3822
61.76	20.3951
61.98	9.11645
62.2	9.60697
62.42	22.7883
62.64	8.0503
62.86	13.8461
63.08	7.12275
63.3	23.8642
63.52	1.70349
63.74	15.5215
63.96	0.882427
64.18	22.0405
64.4	3.15307
64.62	0.285055
64.84	12.0633
65.06	9.46136
65.28	7.19821
65.5	18.415
65.72	5.44027
65.94	2.05662
66.16	18.2064
66.38	8.06015
66.6	0.943123
66.82	0.843178
67.04	16.8021
67.26	8.73553
67.48	5.60599
67.7	7.75629
67.92	3.75168
68.14	0.163116
68.36	11.8667
68.58	16.4699
68.8	17.5568
69.02	14.1972
69.24	11.8332
69.46	5.92332
69.68	12.2891
69.9	16.6197
70.12	3.72411
70.34	7.3717
70.56	19.1174
70.78	6.67019
71	18.0551
71.22	9.94008
71.44	18.0083
71.66	18.2192
71.88	3.93668
72.1	13.5082
72.32	10.6067
72.54	5.30717
72.76	22.3709
72.98	11.8262
73.2	4.89148
73.42	13.6002
73.64	14.5227
73.86	1.04627
74.08	4.35912
74.3	6.87438
74.52	8.04103
74.74	7.78362
74.96	0.016533
75.18	20.0113
75.4	9.80024
75.62	9.77246
75.84	4.90372
76.06	16.8307
76.28	15.692
76.5	17.4254
76.72	15.6952
76.94	8.68384
77.16	12.9927
77.38	6.32481
77.6	14.6079
77.82	14.102
78.04	3.32737
78.26	9.90918
78.48	7.77532
78.7	10.8087
78.92	16.1196
79.14	0.087851
79.36	9.2669
79.58	12.9726
79.8	7.10475
80.02	10.0047
80.24	16.841
80.46	11.7946
80.68	8.83102
80.9	6.94504
81.12	6.96293
81.34	13.7141
81.56	12.6024
81.78	13.0163
82	9.04695
82.22	1.17843
82.44	9.48449
82.66	13.4216
82.88	6.85214
83.1	6.94758
83.32	8.22531
83.54	10.5867
83.76	8.5483
83.98	2.39583
84.2	10.5031
84.42	5.42755
84.64	0.898462
84.86	1.77959
85.08	4.81344
85.3	12.502
85.52	9.58127
85.74	13.2123
85.96	5.88889
86.18	15.4357
86.4	0.022442
86.62	6.95546
86.84	7.85551
87.06	15.8816
87.28	4.07009
87.5	4.76584
87.72	7.70926
87.94	0.134623
88.16	1.01667
88.38	19.113
88.6	6.14312
88.82	3.30214
89.04	12.6241
89.26	8.75647
89.48	15.1418
89.7	17.6273
89.92	5.60371
