Measurement: Powder, Xray Data XY Processed
Mineral: Pyrargyrite
Rruff sample: R050290
Ideal chemistry: Ag^1+^_3_Sb^3+^S^2-^_3_
Locality: San Guillermo Vein, Cueva Santa area, San Luis Shaft, Proa√±o mine, Fresnillo, Zacatecas, Mexico
Source: Dave Bunk Minerals
Description: Prismatic single crystal, deep red color on freshly broken surface
Diffraction sample description: Powder
Measured chemistry: Ag_3.00_Sb_1.00_S_3.00_
Cell parameters: a: 11.0441(6) b: 11.0441(6) c: 8.7258(9) alpha: 90 beta: 90 gamma: 120 volume: 921.7(0) crystal system: hexagonal
x	intensity
5	0
5.22	9.10528
5.44	10.0647
5.66	13.3367
5.88	5.43127
6.1	7.75432
6.32	0.983422
6.54	5.26694
6.76	1.45025
6.98	2.83933
7.2	3.81891
7.42	2.08665
7.64	4.45466
7.86	8.73876
8.08	3.84703
8.3	7.05178
8.52	3.34051
8.74	6.52531
8.96	2.6253
9.18	0.255753
9.4	0.645242
9.62	2.76735
9.84	1.7567
10.06	0.702135
10.28	3.64133
10.5	4.63516
10.72	1.60706
10.94	0.535565
11.16	6.55211
11.38	1.63504
11.6	5.63375
11.82	0.659558
12.04	0.671495
12.26	0.306779
12.48	4.61718
12.7	3.70702
12.92	4.68598
13.14	5.67648
13.36	0.79054
13.58	2.81142
13.8	1.29275
14.02	2.68373
14.24	3.55627
14.46	0.4167
14.68	7.7247
14.9	0.263269
15.12	3.65702
15.34	2.67788
15.56	2.69854
15.78	3.64662
16	1.61332
16.22	4.70024
16.44	0.281069
16.66	3.88033
16.88	4.00436
17.1	4.91848
17.32	2.9141
17.54	0.944689
17.76	8.94288
17.98	0.033339
18.2	6.00537
18.42	5.05672
18.64	1.04547
18.86	1.10155
19.08	3.97798
19.3	3.842
19.52	1.1472
19.74	1.1525
19.96	2.88573
20.18	1.82775
20.4	3.88661
20.62	6.83332
20.84	1.74302
21.06	0.631432
21.28	3.50099
21.5	0.381216
21.72	1.27321
21.94	4.15489
22.16	2.21324
22.38	13.0742
22.6	2.98109
22.82	4.78748
23.04	5.95976
23.26	0.932764
23.48	0.950448
23.7	2.18736
23.92	1.22926
24.14	4.22963
24.36	3.32229
24.58	5.10896
24.8	3.08948
25.02	10.3312
25.24	3.02524
25.46	0.630445
25.68	2.23826
25.9	0.122764
26.12	2.28745
26.34	3.88384
26.56	7.53389
26.78	43.0906
27	4.78415
27.22	4.4969
27.44	5.47544
27.66	41.6028
27.88	20.6844
28.1	34.0018
28.32	7.23836
28.54	9.72154
28.76	4.19764
28.98	1.59801
29.2	2.929
29.42	0.142357
29.64	5.17435
29.86	1.0752
30.08	3.23373
30.3	4.25538
30.52	1.16125
30.74	5.88033
30.96	7.56312
31.18	0.729784
31.4	0.022908
31.62	2.75675
31.84	5.70681
32.06	20.826
32.28	46.7232
32.5	19.6593
32.72	3.88798
32.94	10.8619
33.16	1.97295
33.38	1.13414
33.6	3.12133
33.82	2.09686
34.04	0.055508
34.26	0.202759
34.48	13.6112
34.7	15.5419
34.92	41.385
35.14	17.3717
35.36	66.4353
35.58	4.47497
35.8	10.4948
36.02	2.73766
36.24	2.03865
36.46	4.20595
36.68	6.39554
36.9	4.64867
37.12	3.82103
37.34	0.820168
37.56	4.81675
37.78	1.86626
38	0.015947
38.22	2.11223
38.44	6.01658
38.66	3.88299
38.88	2.88934
39.1	2.86481
39.32	3.75533
39.54	6.97217
39.76	27.9607
39.98	13.8502
40.2	3.8656
40.42	2.88035
40.64	2.31037
40.86	0.661149
41.08	3.55242
41.3	0.564185
41.52	5.31568
41.74	6.21697
41.96	3.88847
42.18	5.8054
42.4	7.59514
42.62	16.8761
42.84	9.80382
43.06	7.97068
43.28	6.15358
43.5	15.5461
43.72	0.312167
43.94	4.78862
44.16	6.96727
44.38	7.13772
44.6	2.25725
44.82	4.23186
45.04	9.85504
45.26	2.77552
45.48	6.65146
45.7	1.43728
45.92	2.45579
46.14	12.4085
46.36	16.4351
46.58	9.36535
46.8	4.39838
47.02	8.29184
47.24	6.38933
47.46	2.46795
47.68	2.4162
47.9	0.342997
48.12	5.30991
48.34	1.03119
48.56	2.87094
48.78	17.8223
49	4.02092
49.22	3.0049
49.44	0.833874
49.66	10.1311
49.88	5.28881
50.1	5.66355
50.32	0.717062
50.54	1.75444
50.76	1.27077
50.98	2.74612
51.2	0.737494
51.42	5.47533
51.64	14.4109
51.86	4.45458
52.08	4.47493
52.3	7.39184
52.52	1.21337
52.74	2.28744
52.96	3.23431
53.18	5.22615
53.4	2.16972
53.62	3.11933
53.84	4.09055
54.06	5.00996
54.28	9.75486
54.5	8.86639
54.72	5.89201
54.94	5.9057
55.16	13.0321
55.38	1.36087
55.6	2.35586
55.82	0.110269
56.04	0.948806
56.26	3.06733
56.48	0.849104
56.7	7.20059
56.92	2.03261
57.14	12.0022
57.36	5.93885
57.58	3.8181
57.8	5.52455
58.02	5.3456
58.24	3.29061
58.46	3.38533
58.68	4.30447
58.9	3.29674
59.12	2.41807
59.34	6.33029
59.56	1.20557
59.78	1.25911
60	2.28129
60.22	3.35313
60.44	6.42837
60.66	4.26256
60.88	5.48982
61.1	0.564588
61.32	2.7351
61.54	3.85881
61.76	2.94942
61.98	4.06573
62.2	4.25862
62.42	0.229323
62.64	1.29401
62.86	6.20066
63.08	2.12279
63.3	1.9773
63.52	2.95461
63.74	7.85752
63.96	0.330734
64.18	3.72312
64.4	2.5498
64.62	8.67544
64.84	2.86777
65.06	3.93179
65.28	2.92536
65.5	0.905802
65.72	3.93242
65.94	8.91801
66.16	5.90661
66.38	2.85467
66.6	2.74404
66.82	5.85463
67.04	2.81188
67.26	8.75139
67.48	4.65025
67.7	2.68823
67.92	2.92031
68.14	3.92076
68.36	0.067385
68.58	3.96196
68.8	2.98373
69.02	7.07406
69.24	5.04575
69.46	3.95104
69.68	10.8767
69.9	10.8775
70.12	2.93799
70.34	0.765396
70.56	2.78827
70.78	4.02178
71	3.31494
71.22	4.39044
71.44	4.34921
71.66	6.44776
71.88	0.362147
72.1	6.69037
72.32	3.7372
72.54	3.71025
72.76	2.78651
72.98	9.88305
73.2	6.67195
73.42	1.54946
73.64	5.58646
73.86	0.41321
74.08	4.46386
74.3	6.3839
74.52	0.617806
74.74	4.38369
74.96	3.40904
75.18	2.44098
75.4	1.41025
75.62	3.57322
75.84	6.64638
76.06	6.64
76.28	7.66201
76.5	0.279772
76.72	3.65076
76.94	3.76176
77.16	2.03652
77.38	4.02776
77.6	5.91575
77.82	7.85465
78.04	4.51593
78.26	2.50469
78.48	5.43489
78.7	2.44697
78.92	6.55569
79.14	4.44285
79.36	3.35988
79.58	2.06254
79.8	3.97825
80.02	0.160117
80.24	3.09947
80.46	5.97054
80.68	5.90176
80.9	4.951
81.12	0.807282
81.34	8.61937
81.56	8.51666
81.78	4.47216
82	4.40095
82.22	3.40446
82.44	5.26895
82.66	0.264633
82.88	9.5161
83.1	5.63643
83.32	5.5629
83.54	0.7011
83.76	3.74362
83.98	1.84509
84.2	3.89837
84.42	1.95196
84.64	7.09033
84.86	1.04381
85.08	1.0878
85.3	2.99709
85.52	4.13626
85.74	0.178231
85.96	3.09453
86.18	2.27913
86.4	0.4204
86.62	4.4838
86.84	0.625059
87.06	5.65176
87.28	7.71423
87.5	1.23704
87.72	2.73391
87.94	3.60062
88.16	4.73777
88.38	8.80577
88.6	7.6734
88.82	8.65773
89.04	4.51492
89.26	2.63422
89.48	2.8166
89.7	1.73746
89.92	8.78723
