Measurement: Powder, Xray Data XY Processed
Mineral: Pyrite
Rruff sample: R070692
Ideal chemistry: Fe^2+^(S_2_)^2-^
Locality: Pohla, Schwarzenberg, Erzebirge, Saxony, Germany
Source: James Shigley
Description: Yellow-brown metallic prismatic crystals with light blue tarnish, pseudomorph after argentopyrite. Even though they look like good crystals, the sample is extremely fine-grained.
Diffraction sample description: Powder, using Mo radiation
Cell parameters: a: 5.4351(8) b: 5.4351(8) c: 5.4351(8) alpha: 90 beta: 90 gamma: 90 volume: 160.56(7) crystal system: cubic
x	intensity
1.71	0
1.89	3.52816
2.07	3.08551
2.25	17.5602
2.43	19.9922
2.61	20.3643
2.79	23.002
2.97	21.8413
3.15	3.10489
3.33	6.12054
3.51	15.4267
3.69	22.8513
3.87	14.2988
4.05	5.94232
4.23	18.1538
4.41	19.3759
4.59	37.4285
4.77	59.9804
4.95	70.4815
5.13	67.7516
5.31	71.2627
5.49	61.3199
5.67	53.6399
5.85	60.6664
6.03	62.0391
6.21	42.9625
6.39	48.1222
6.57	43.5225
6.75	45.6113
6.93	32.995
7.11	15.6502
7.29	30.7279
7.47	31.2012
7.65	29.2507
7.83	26.5923
8.01	22.6008
8.19	13.5196
8.37	10.0303
8.55	17.8657
8.73	14.8441
8.91	17.032
9.09	6.04113
9.27	7.21307
9.45	5.85594
9.63	14.4979
9.81	1.85143
9.99	2.68437
10.17	6.41022
10.35	8.70502
10.53	6.87259
10.71	7.45403
10.89	3.22717
11.07	0.316406
11.25	1.88552
11.43	1.39706
11.61	46.953
11.79	96.9862
11.97	84.36
12.15	9.9399
12.33	1.42851
12.51	1.72942
12.69	57.3402
12.87	352.686
13.05	439.046
13.23	306.36
13.41	32.2048
13.59	12.9635
13.77	0.538239
13.95	1.03194
14.13	6.17203
14.31	0.345934
14.49	4.11831
14.67	67.4148
14.85	706.152
15.03	1482.9
15.21	1258.81
15.39	292.861
15.57	47.4077
15.75	18.9192
15.93	3.79933
16.11	0.687581
16.29	0.829554
16.47	52.2666
16.65	457.089
16.83	839.428
17.01	636.271
17.19	136.143
17.37	62.9694
17.55	72.3013
17.73	56.2768
17.91	22.905
18.09	61.5727
18.27	358.088
18.45	616.565
18.63	430.812
18.81	87.599
18.99	15.2638
19.17	7.33707
19.35	0.280326
19.53	3.36759
19.71	6.37334
19.89	6.45801
20.07	0.541104
20.25	0.50155
20.43	0.427174
20.61	0.616434
20.79	0.424765
20.97	41.4967
21.15	383.085
21.33	832.453
21.51	557.128
21.69	105.753
21.87	21.1595
22.05	2.59054
22.23	2.93963
22.41	1.90803
22.59	0.045397
22.77	7.29438
22.95	27.4983
23.13	111.715
23.31	160.867
23.49	67.3061
23.67	15.9481
23.85	15.169
24.03	16.1189
24.21	66.7467
24.39	60.0338
24.57	44.4845
24.75	214.586
24.93	1071.52
25.11	1659.23
25.29	816.533
25.47	161.572
25.65	104.319
25.83	85.1068
26.01	127.062
26.19	201.072
26.37	147.969
26.55	46.2644
26.73	29.7017
26.91	40.7282
27.09	150.697
27.27	287.795
27.45	202.04
27.63	39.6813
27.81	0.080217
27.99	38.6852
28.17	202.039
28.35	337.945
28.53	227.246
28.71	77.5109
28.89	32.4708
29.07	5.32261
29.25	1.61376
29.43	2.06609
29.61	2.85372
29.79	2.29013
29.97	11.6906
30.15	20.2572
30.33	3.56977
30.51	1.14719
30.69	0.651047
30.87	1.07747
31.05	1.00318
31.23	14.2871
31.41	11.1799
31.59	13.8008
31.77	5.55026
31.95	0.499026
32.13	1.07077
32.31	7.25282
32.49	1.44044
32.67	4.68807
32.85	36.5497
33.03	121.092
33.21	131.268
33.39	74.9891
33.57	34.0805
33.75	74.7048
33.93	213.795
34.11	233.624
34.29	121.056
34.47	49.4374
34.65	80.6703
34.83	139.563
35.01	115.974
35.19	52.7972
35.37	26.4531
35.55	47.0571
35.73	66.5784
35.91	41.7503
36.09	11.8658
36.27	1.11588
36.45	1.13509
36.63	0.578412
36.81	1.68644
36.99	14.0486
37.17	74.989
37.35	142.245
37.53	126.936
37.71	63.1279
37.89	42.9109
38.07	32.5838
38.25	13.2503
38.43	6.53463
38.61	0.39541
38.79	1.28957
38.97	5.91649
39.15	9.35634
39.33	42.6217
39.51	190.764
39.69	425.934
39.87	361.383
40.05	207.443
40.23	41.3322
40.41	16.1604
40.59	2.21913
40.77	5.39461
40.95	35.8449
41.13	88.3076
41.31	81.984
41.49	61.8084
41.67	24.9599
41.85	67.5066
42.03	78.6766
42.21	61.4906
42.39	18.7112
42.57	1.4798
42.75	1.14803
42.93	14.4465
43.11	54.6896
43.29	202.079
43.47	222.021
43.65	165.873
43.83	57.1255
44.01	6.37963
44.19	1.15257
44.37	1.06463
44.55	0.323668
44.73	1.11547
44.91	2.34546
45.09	1.04167
45.27	7.33577
45.45	34.6877
45.63	32.6811
45.81	34.4976
45.99	36.6492
46.17	60.4303
46.35	42.9579
46.53	36.7713
46.71	16.2795
46.89	18.7377
47.07	20.8147
47.25	26.7309
47.43	58.8648
47.61	56.8938
47.79	47.6134
47.97	12.4975
48.15	2.44686
48.33	1.3855
48.51	8.23085
48.69	42.3421
48.87	56.0587
49.05	37.3986
49.23	28.1477
49.41	11.9339
49.59	6.29383
49.77	0.436867
49.95	1.21653
50.13	0.503888
50.31	4.93815
50.49	23.7651
50.67	52.9446
50.85	42.1387
51.03	44.88
51.21	40.2548
51.39	42.308
51.57	33.737
51.75	38.0098
51.93	31.5759
52.11	26.0353
52.29	30.0036
52.47	20.7332
52.65	26.4337
52.83	11.9592
53.01	24.7467
53.19	2.0696
53.37	1.48429
53.55	0.73072
53.73	0.452762
53.91	4.85456
54.09	2.42055
54.27	1.39127
54.45	1.54748
54.63	1.23594
54.81	0.167022
54.99	0.620454
55.17	0.333127
55.35	3.84636
55.53	17.3803
55.71	20.8199
55.89	24.5751
56.07	48.9993
56.25	55.1232
56.43	42.0489
56.61	58.1178
56.79	45.543
56.97	22.5501
57.15	36.3196
57.33	38.9882
57.51	19.8092
57.69	26.7684
57.87	15.3214
58.05	7.45605
58.23	6.96807
58.41	23.3218
58.59	33.797
58.77	23.3044
58.95	25.1129
59.13	7.75161
59.31	3.32506
59.49	2.86614
59.67	7.99161
59.85	12.792
60.03	31.2823
60.21	93.0168
60.39	61.8863
60.57	66.6342
60.75	49.2654
60.93	9.15122
61.11	9.69995
61.29	19.7552
61.47	15.0059
61.65	14.7993
61.83	33.9581
62.01	24.0804
62.19	7.57943
62.37	14.0609
62.55	6.84077
62.73	12.5521
62.91	18.7513
63.09	24.3404
63.27	8.36338
63.45	21.041
63.63	4.05182
63.81	2.45792
63.99	0.780065
64.17	0.996165
64.35	0.463963
64.53	12.8483
64.71	12.3064
64.89	0.266608
65.07	6.18791
