Measurement: Powder, Xray Data XY Processed
Mineral: Pyrite
Rruff sample: R080030
Ideal chemistry: Fe^2+^(S_2_)^2-^
Locality: Schaft 209, Aue, Niederschlema, Erzgebirge, Saxony, Germany
Source: William W. Pinch
Description: Dark-bronze and blue, tarnished pseudohexagonal prisms; bright grey when a fresh surface is exposed. Associated with wire silver. These crystals were labeled argentopyrite, but are pseudomorphs.
Diffraction sample description: Powder, using Mo radiation
Measured chemistry: Fe_1.04_Ag_0.01_As_0.08_S_2_
Cell parameters: a: 5.4399(9) b: 5.4399(9) c: 5.4399(9) alpha: 90 beta: 90 gamma: 90 volume: 160.98(8) crystal system: cubic
x	intensity
4.88	0
4.98	5.30757
5.08	7.02812
5.18	3.40734
5.28	11.8688
5.38	8.18936
5.48	0.900858
5.58	4.3675
5.68	11.5559
5.78	0.007643
5.88	14.3721
5.98	2.97342
6.08	3.13074
6.18	7.44401
6.28	11.7534
6.38	2.03956
6.48	8.78571
6.58	7.25665
6.68	4.87092
6.78	7.25138
6.88	1.52312
6.98	6.04426
7.08	0.307151
7.18	0.835832
7.28	3.76004
7.38	4.57706
7.48	5.33043
7.58	0.606538
7.68	0.972383
7.78	5.49212
7.88	0.676793
7.98	0.975018
8.08	3.0835
8.18	0.9003
8.28	0.299345
8.38	3.97239
8.48	3.52972
8.58	5.76596
8.68	2.09633
8.78	4.14985
8.88	0.218057
8.98	1.64605
9.08	1.3806
9.18	0.216309
9.28	0.093144
9.38	1.30152
9.48	6.34979
9.58	3.28851
9.68	8.91144
9.78	12.4066
9.88	14.5768
9.98	8.20279
10.08	4.01329
10.18	1.1499
10.28	2.76107
10.38	4.26812
10.48	6.35942
10.58	0.427025
10.68	2.54251
10.78	1.0185
10.88	4.51476
10.98	6.93173
11.08	3.20523
11.18	0.303205
11.28	0.886717
11.38	5.66168
11.48	6.40585
11.58	12.872
11.68	22.7808
11.78	26.3094
11.88	23.7801
11.98	14.2148
12.08	5.99396
12.18	0.134479
12.28	4.73994
12.38	2.40503
12.48	2.43644
12.58	1.69334
12.68	4.26356
12.78	16.1608
12.88	50.0048
12.98	82.3769
13.08	77.0042
13.18	44.88
13.28	14.6217
13.38	0.360017
13.48	0.391451
13.58	3.11861
13.68	2.58606
13.78	4.26514
13.88	1.67849
13.98	1.79019
14.08	2.46603
14.18	1.06838
14.28	1.19167
14.38	1.77746
14.48	0.092676
14.58	1.68559
14.68	7.0497
14.78	31.0309
14.88	116.829
14.98	217.894
15.08	268.342
15.18	182.688
15.28	75.1834
15.38	25.8569
15.48	8.10704
15.58	0.977694
15.68	2.97715
15.78	0.609423
15.88	0.878294
15.98	0.223835
16.08	0.81289
16.18	0.831518
16.28	1.14815
16.38	0.497183
16.48	0.086733
16.58	22.2595
16.68	70.8578
16.78	131.392
16.88	140.13
16.98	85.5021
17.08	33.2189
17.18	6.39499
17.28	5.41026
17.38	9.98395
17.48	15.3281
17.58	19.673
17.68	14.5303
17.78	6.45546
17.88	2.71885
17.98	1.37824
18.08	6.99344
18.18	16.554
18.28	47.8327
18.38	91.4995
18.48	93.5727
18.58	57.377
18.68	18.3632
18.78	4.54537
18.88	3.37371
18.98	0.057677
19.08	0.312709
19.18	1.39268
19.28	0.14173
19.38	0.625372
19.48	0.56977
19.58	4.45776
19.68	4.01298
19.78	5.37083
19.88	1.51211
19.98	2.54342
20.08	0.534049
20.18	0.038197
20.28	2.6625
20.38	0.358752
20.48	5.11675
20.58	4.13453
20.68	4.11309
20.78	2.70866
20.88	0.303463
20.98	5.05727
21.08	23.9614
21.18	71.5533
21.28	118.545
21.38	118.607
21.48	62.309
21.58	23.0591
21.68	2.71529
21.78	2.72271
21.88	3.06632
21.98	1.08871
22.08	1.52155
22.18	2.46674
22.28	4.73768
22.38	1.22336
22.48	0.430607
22.58	0.406789
22.68	0.288972
22.78	0.439492
22.88	1.87095
22.98	3.589
23.08	16.8363
23.18	28.4536
23.28	31.3692
23.38	15.5254
23.48	3.06337
23.58	0.701197
23.68	0.955026
23.78	3.37931
23.88	0.219389
23.98	0.783958
24.08	0.249729
24.18	14.6408
24.28	17.8614
24.38	14.5679
24.48	13.5518
24.58	5.69516
24.68	8.4376
24.78	32.06
24.88	100.521
24.98	204.906
25.08	222.08
25.18	146.122
25.28	65.114
25.38	16.1686
25.48	5.51784
25.58	10.5272
25.68	15.3346
25.78	13.3922
25.88	9.51966
25.98	9.74481
26.08	24.3773
26.18	26.4946
26.28	19.2777
26.38	6.71447
26.48	0.891392
26.58	1.42102
26.68	4.46407
26.78	3.04592
26.88	2.87588
26.98	8.55129
27.08	19.9351
27.18	30.6399
27.28	40.1637
27.38	20.7926
27.48	11.303
27.58	3.98581
27.68	0.829053
27.78	0.631384
27.88	0.69875
27.98	0.054444
28.08	7.49669
28.18	26.7975
28.28	42.4115
28.38	42.3318
28.48	27.4455
28.58	12.6074
28.68	7.29874
28.78	8.76064
28.88	12.9611
28.98	8.08594
29.08	4.86653
29.18	1.56855
29.28	0.297447
29.38	4.24786
29.48	0.196126
29.58	7.01762
29.68	3.75767
29.78	5.14351
29.88	4.43067
29.98	11.0202
30.08	9.33642
30.18	4.79254
30.28	3.71598
30.38	6.04729
30.48	6.50288
30.58	0.023811
30.68	0.083758
30.78	6.76743
30.88	1.32593
30.98	0.557871
31.08	3.68751
31.18	0.510195
31.28	10.2435
31.38	5.91405
31.48	0.500064
31.58	0.968605
31.68	2.29478
31.78	5.81197
31.88	3.2246
31.98	0.801538
32.08	0.936614
32.18	0.299704
32.28	2.12687
32.38	3.1704
32.48	5.42844
32.58	4.60098
32.68	3.763
32.78	2.69835
32.88	10.5404
32.98	15.4493
33.08	17.275
33.18	18.235
33.28	11.356
33.38	6.82289
33.48	2.97009
33.58	1.27562
33.68	0.795401
33.78	9.89057
33.88	28.0963
33.98	29.2963
34.08	24.4566
34.18	21.823
34.28	17.3029
34.38	6.87099
34.48	8.79714
34.58	14.0965
34.68	15.8557
34.78	15.9614
34.88	14.8505
34.98	8.68156
35.08	8.32428
35.18	8.82522
35.28	2.57203
35.38	9.54236
35.48	10.7031
35.58	10.7408
35.68	11.0396
35.78	9.33237
35.88	2.32464
35.98	4.15026
36.08	6.97604
36.18	2.44451
36.28	0.60664
36.38	5.28968
36.48	13.4172
36.58	1.30154
36.68	8.8718
36.78	0.136408
36.88	15.0702
36.98	0
