Measurement: Powder, Xray Data XY Processed
Mineral: Pyromorphite
Rruff sample: R050085
Ideal chemistry: Pb^2+^_5_(PO_4_)_3_Cl
Locality: Bunker Hill mine, Shoshone County, Idaho, USA
Source: Eugene Schlepp
Description: Group of orange hexagonal prisms
Diffraction sample description: Powder
Measured chemistry: Pb_5.00_(P_0.96_As_0.04_O_4_)_3_Cl_1.00_
Cell parameters: a: 9.9925(4) b: 9.9925(4) c: 7.3451(4) alpha: 90. beta: 90. gamma: 120. volume: 635.15(4) crystal system: hexagonal
x	intensity
5	0
5.22	5.255
5.44	8.056
5.66	5.881
5.88	4.781
6.1	15.732
6.32	9.963
6.54	13.342
6.76	6.312
6.98	13.421
7.2	4.662
7.42	1.878
7.64	0.695
7.86	9.877
8.08	3.015
8.3	8.142
8.52	1.309
8.74	6.285
8.96	7.127
9.18	0.057
9.4	7.957
9.62	12.876
9.84	7.025
10.06	2.178
10.28	7.909
10.5	6.202
10.72	6.322
10.94	7.446
11.16	7.506
11.38	0.322
11.6	2.728
11.82	5.748
12.04	9.702
12.26	8.551
12.48	3.503
12.7	2.364
12.92	4.266
13.14	3.177
13.36	10.163
13.58	0.845
13.8	6.052
14.02	1.145
14.24	6.147
14.46	4.298
14.68	7.309
14.9	0.066
15.12	5.113
15.34	3.237
15.56	8.262
15.78	9.35
16	3.58
16.22	10.886
16.44	2.968
16.66	3.003
16.88	0.894
17.1	1.096
17.32	2.043
17.54	7.915
17.76	22.775
17.98	13.863
18.2	2.813
18.42	2.789
18.64	3.628
18.86	2.385
19.08	8.336
19.3	1.222
19.52	7.027
19.74	6.744
19.96	5.728
20.18	4.603
20.4	8.301
20.62	79.059
20.84	6.582
21.06	2.626
21.28	5.569
21.5	79.966
21.72	11.999
21.94	5.248
22.16	4.481
22.38	3.685
22.6	5.675
22.82	0.762
23.04	3.841
23.26	9.78
23.48	6.965
23.7	10.73
23.92	16.728
24.14	7.673
24.36	16.574
24.58	6.72
24.8	5.786
25.02	2.688
25.24	4.582
25.46	15.473
25.68	3.361
25.9	0.874
26.12	5.824
26.34	35.649
26.56	21.621
26.78	6.438
27	18.966
27.22	26.137
27.44	12.317
27.66	3.202
27.88	8.509
28.1	2.606
28.32	0.747
28.54	1.991
28.76	4.568
28.98	2.988
29.2	9.343
29.42	8.727
29.64	2.843
29.86	107.135
30.08	73.619
30.3	337.176
30.52	8.395
30.74	3.417
30.96	65.808
31.18	32.43
31.4	1.046
31.62	2.765
31.84	1.582
32.06	11.425
32.28	2.165
32.5	13.904
32.72	4.107
32.94	8.605
33.16	8.141
33.38	7.272
33.6	5.376
33.82	8.639
34.04	3.572
34.26	7.576
34.48	3.345
34.7	4.39
34.92	5.24
35.14	3.154
35.36	5.037
35.58	9.068
35.8	5.069
36.02	10.163
36.24	0.227
36.46	7.057
36.68	8.214
36.9	9.423
37.12	8.563
37.34	9.574
37.56	8.689
37.78	4.65
38	4.467
38.22	5.498
38.44	2.136
38.66	1.007
38.88	9.855
39.1	6.814
39.32	1.625
39.54	7.519
39.76	53.503
39.98	2.271
40.2	9.047
40.42	5.883
40.64	3.736
40.86	9.695
41.08	78.131
41.3	12.026
41.52	14.213
41.74	18.124
41.96	10.467
42.18	2.656
42.4	4.298
42.62	0.764
42.84	3.131
43.06	4.999
43.28	1.249
43.5	8.061
43.72	45.682
43.94	83.339
44.16	13.967
44.38	3.189
44.6	5.85
44.82	4.545
45.04	14.448
45.26	40.158
45.48	8.899
45.7	30.692
45.92	9.497
46.14	6.512
46.36	139.345
46.58	12.277
46.8	1.518
47.02	2.349
47.24	5.108
47.46	76.732
47.68	14.554
47.9	1.372
48.12	20.882
48.34	54.494
48.56	0.214
48.78	29.466
49	48.917
49.22	3.428
49.44	9.177
49.66	15.834
49.88	12.412
50.1	0.723
50.32	7.247
50.54	3.799
50.76	12.094
50.98	6.492
51.2	2.747
51.42	7.673
51.64	0.052
51.86	0.278
52.08	0.207
52.3	0.097
52.52	6.111
52.74	7.987
52.96	1.16
53.18	20.129
53.4	0.959
53.62	2.969
53.84	0.976
54.06	1.992
54.28	15.852
54.5	7.868
54.72	25.041
54.94	2.868
55.16	5.474
55.38	0.628
55.6	4.301
55.82	1.773
56.04	4.342
56.26	12.298
56.48	12.226
56.7	18.162
56.92	13.114
57.14	2.466
57.36	12.974
57.58	31.177
57.8	13.068
58.02	1.976
58.24	0.861
58.46	7.497
58.68	2.205
58.9	11.831
59.12	8.47
59.34	4.504
59.56	22.67
59.78	43.94
60	134.456
60.22	8.53
60.44	4.667
60.66	3.432
60.88	20.651
61.1	58.971
61.32	23.356
61.54	3.729
61.76	6.7
61.98	2.904
62.2	8.337
62.42	3.906
62.64	5.99
62.86	2.002
63.08	1.609
63.3	4.76
63.52	4.943
63.74	13.991
63.96	11.06
64.18	0.306
64.4	5.613
64.62	1.608
64.84	8.611
65.06	5.613
65.28	1.531
65.5	11.61
65.72	0.482
65.94	8.202
66.16	6.15
66.38	11.025
66.6	2.783
66.82	7.295
67.04	7.868
67.26	10.602
67.48	8.004
67.7	3.768
67.92	11.367
68.14	5.222
68.36	5.423
68.58	2.12
68.8	2.694
69.02	13.348
69.24	3.052
69.46	1.758
69.68	21.002
69.9	13.126
70.12	12.806
70.34	7.528
70.56	6.878
70.78	6.469
71	29.182
71.22	15.507
71.44	18.568
71.66	57.632
71.88	30.29
72.1	21.18
72.32	0.96
72.54	6.63
72.76	11.132
72.98	30.704
73.2	23.683
73.42	7.534
73.64	2.632
73.86	2.024
74.08	6.636
74.3	2.09
74.52	13.323
74.74	5.022
74.96	3.015
75.18	0.985
75.4	4.909
75.62	6.471
75.84	1.668
76.06	4.505
76.28	60.452
76.5	21.215
76.72	7.255
76.94	0.554
77.16	7.299
77.38	8.133
77.6	23.059
77.82	13.082
78.04	0.142
78.26	28.907
78.48	23.563
78.7	2.386
78.92	9.538
79.14	3.97
79.36	13.384
79.58	14.188
79.8	7.031
80.02	7.834
80.24	3.507
80.46	0.24
80.68	6.885
80.9	5.889
81.12	12.809
81.34	5.504
81.56	1.471
81.78	12.402
82	6.947
82.22	19.15
82.44	12.52
82.66	5.914
82.88	1.299
83.1	4.448
83.32	6.92
83.54	8.427
83.76	6.724
83.98	10.992
84.2	6.949
84.42	5.971
84.64	7.38
84.86	5.445
85.08	4.44
85.3	7.438
85.52	4.401
85.74	0.378
85.96	7.236
86.18	10.199
86.4	2.182
86.62	6.236
86.84	7.079
87.06	1.923
87.28	2.814
87.5	1.71
87.72	1.764
87.94	3.571
88.16	4.348
88.38	4.282
88.6	7.078
88.82	4.246
89.04	12.858
89.26	8.258
89.48	4.467
89.7	1.238
89.92	19.193
