Measurement: Powder, Xray Data XY Processed
Mineral: Pyrolusite
Rruff sample: R050361
Ideal chemistry: Mn^4+^O_2_
Locality: Serra do Navio, Amapa, Brazil
Source: University of Arizona Mineral Museum
Description: Black prismatic crystals
Diffraction sample description: Powder
Measured chemistry: Mn_1.00_O_2_
Cell parameters: a: 4.4123(5) b: 4.4123(5) c: 2.8710(8) alpha: 90. beta: 90. gamma: 90. volume: 55.89(2) crystal system: tetragonal
x	intensity
5	0
5.22	9.2745
5.44	24.1555
5.66	22.632
5.88	14.6663
6.1	15.662
6.32	31.2575
6.54	16.6526
6.76	26.7836
6.98	6.62769
7.2	18.8952
7.42	9.86058
7.64	13.4692
7.86	6.37254
8.08	22.5377
8.3	16.4022
8.52	16.3133
8.74	20.6189
8.96	21.1059
9.18	27.1735
9.4	24.2249
9.62	13.884
9.84	8.68172
10.06	22.5555
10.28	18.0665
10.5	4.43509
10.72	3.90006
10.94	22.6241
11.16	6.48672
11.38	16.7754
11.6	14.4404
11.82	28.8058
12.04	6.30663
12.26	16.0363
12.48	11.25
12.7	8.02238
12.92	23.0096
13.14	9.69208
13.36	0.748703
13.58	19.5714
13.8	24.8359
14.02	17.1613
14.24	16.1967
14.46	16.4678
14.68	10.5652
14.9	1.55436
15.12	12.9137
15.34	22.1774
15.56	4.89696
15.78	18.4932
16	22.5927
16.22	13.375
16.44	15.9912
16.66	19.8334
16.88	16.5131
17.1	22.9653
17.32	12.6638
17.54	19.1187
17.76	0.668427
17.98	0.583641
18.2	0.285988
18.42	22.1773
18.64	20.3218
18.86	4.9623
19.08	1.37714
19.3	11.6213
19.52	12.9567
19.74	24.5312
19.96	24.5181
20.18	0.262993
20.4	32.6642
20.62	16.8433
20.84	8.54942
21.06	10.051
21.28	7.42953
21.5	18.3204
21.72	11.8799
21.94	17.8099
22.16	17.3872
22.38	18.5799
22.6	16.0679
22.82	7.10323
23.04	17.0607
23.26	20.387
23.48	5.55728
23.7	15.1012
23.92	26.861
24.14	20.6295
24.36	5.82959
24.58	4.10793
24.8	24.3127
25.02	18.5329
25.24	12.6241
25.46	16.1963
25.68	32.7945
25.9	13.2775
26.12	17.8831
26.34	15.6635
26.56	21.6654
26.78	26.9069
27	14.4122
27.22	25.7897
27.44	14.1471
27.66	16.2026
27.88	7.67819
28.1	23.2422
28.32	13.0094
28.54	174.833
28.76	158.068
28.98	19.5594
29.2	0.747307
29.42	6.36371
29.64	3.94914
29.86	17.2292
30.08	14.9306
30.3	19.5352
30.52	16.512
30.74	16.8053
30.96	1.45002
31.18	3.67917
31.4	4.9285
31.62	32.5058
31.84	15.665
32.06	3.58045
32.28	41.8648
32.5	26.7966
32.72	13.817
32.94	36.3738
33.16	7.95625
33.38	23.693
33.6	20.9806
33.82	22.9203
34.04	3.06596
34.26	0.870064
34.48	4.19822
34.7	2.22099
34.92	10.034
35.14	37.1542
35.36	25.3436
35.58	25.4627
35.8	24.227
36.02	19.7824
36.24	20.4809
36.46	15.9094
36.68	21.8952
36.9	27.4959
37.12	19.9711
37.34	92.6365
37.56	49.0159
37.78	12.6634
38	13.7768
38.22	7.78054
38.44	17.9221
38.66	25.9281
38.88	33.0231
39.1	4.15646
39.32	26.3585
39.54	12.3249
39.76	12.7683
39.98	21.5322
40.2	12.3163
40.42	5.02746
40.64	19.0501
40.86	18.7937
41.08	16.2308
41.3	12.1776
41.52	4.93993
41.74	20.3876
41.96	1.33461
42.18	24.9209
42.4	22.1587
42.62	4.00637
42.84	33.277
43.06	32.5832
43.28	7.45422
43.5	17.0771
43.72	16.6015
43.94	5.45959
44.16	26.468
44.38	5.81113
44.6	16.6891
44.82	14.6272
45.04	9.942
45.26	6.07935
45.48	14.5266
45.7	19.9275
45.92	31.9727
46.14	8.57277
46.36	5.72839
46.58	16.3387
46.8	11.8043
47.02	19.2207
47.24	4.17963
47.46	16.9972
47.68	9.35416
47.9	23.1117
48.12	12.9546
48.34	4.82739
48.56	13.2072
48.78	9.68694
49	12.5409
49.22	17.0895
49.44	14.4033
49.66	7.04617
49.88	22.4299
50.1	8.32877
50.32	32.7959
50.54	0.68055
50.76	27.243
50.98	21.6119
51.2	25.6219
51.42	23.5746
51.64	32.0584
51.86	23.8172
52.08	14.0088
52.3	11.4341
52.52	17.6011
52.74	21.8635
52.96	13.1574
53.18	11.1267
53.4	6.13534
53.62	11.8916
53.84	8.26702
54.06	14.3567
54.28	24.9067
54.5	31.7931
54.72	27.822
54.94	26.3613
55.16	20.3869
55.38	13.6703
55.6	26.2441
55.82	34.248
56.04	11.7595
56.26	26.5516
56.48	64.7656
56.7	56.117
56.92	35.0929
57.14	13.8419
57.36	7.88904
57.58	17.0182
57.8	13.3291
58.02	13.4078
58.24	9.43877
58.46	14.5071
58.68	5.44595
58.9	14.5102
59.12	39.3469
59.34	51.0951
59.56	40.5419
59.78	2.81113
60	16.6072
60.22	16.6644
60.44	20.9817
60.66	2.62481
60.88	15.9644
61.1	12.3138
61.32	24.3712
61.54	1.49048
61.76	21.9468
61.98	19.9607
62.2	8.22607
62.42	23.7142
62.64	3.38296
62.86	20.6327
63.08	19.7524
63.3	20.0653
63.52	36.065
63.74	17.053
63.96	19.882
64.18	9.03877
64.4	5.84634
64.62	16.394
64.84	32.5784
65.06	7.41127
65.28	8.4754
65.5	14.0185
65.72	5.34321
65.94	9.75241
66.16	17.519
66.38	1.83496
66.6	4.9072
66.82	19.8277
67.04	25.8001
67.26	33.1506
67.48	4.45882
67.7	8.7739
67.92	8.62403
68.14	8.80463
68.36	14.0701
68.58	0.237495
68.8	11.8349
69.02	9.94244
69.24	27.9162
69.46	21.8258
69.68	16.8513
69.9	4.65249
70.12	15.0257
70.34	14.7281
70.56	10.8467
70.78	12.582
71	10.8235
71.22	22.247
71.44	7.79647
71.66	5.43392
71.88	25.0994
72.1	33.9883
72.32	26.1203
72.54	27.8432
72.76	26.7638
72.98	5.4846
73.2	8.85213
73.42	17.927
73.64	2.28909
73.86	39.4028
74.08	21.1201
74.3	20.7473
74.52	13.0806
74.74	8.66361
74.96	4.86774
75.18	4.99139
75.4	16.6348
75.62	23.1118
75.84	15.8958
76.06	34.2725
76.28	1.74621
76.5	0.463539
76.72	14.9878
76.94	14.7257
77.16	9.21588
77.38	34.1504
77.6	23.7945
77.82	15.9307
78.04	2.02352
78.26	5.8845
78.48	24.5062
78.7	4.85594
78.92	22.3218
79.14	1.82902
79.36	8.17978
79.58	11.4605
79.8	6.79771
80.02	9.75695
80.24	6.89915
80.46	30.825
80.68	21.8892
80.9	12.7835
81.12	29.122
81.34	8.31428
81.56	21.348
81.78	8.72433
82	13.7232
82.22	30.313
82.44	24.8343
82.66	15.1386
82.88	14.8659
83.1	22.5394
83.32	28.2553
83.54	32.2524
83.76	31.2854
83.98	16.238
84.2	5.63702
84.42	10.0011
84.64	23.778
84.86	7.11006
85.08	17.0494
85.3	16.6485
85.52	20.9007
85.74	18.9251
85.96	7.80753
86.18	1.41856
86.4	5.9753
86.62	0.988892
86.84	6.73387
87.06	1.11491
87.28	24.9421
87.5	26.0855
87.72	8.72853
87.94	11.5169
88.16	3.61326
88.38	24.2331
88.6	0.194748
88.82	32.18
89.04	24.3623
89.26	18.2619
89.48	12.9553
89.7	31.5843
89.92	25.5568
