Measurement: Powder, Xray Data XY Processed
Mineral: Pyrophyllite
Rruff sample: R050108
Ideal chemistry: Al_2_Si_4_O_10_(OH)_2_
Locality: Graves Mountain, Lincoln County, Georgia, USA
Source: Rock Currier
Description: Lamellar radial aggregates
Diffraction sample description: Powder
Measured chemistry: (Al_.976_Fe_.020_Mg_.002_Ca_.001_)_2_Si_4_O_10_(OH)_2_
Cell parameters: a: 5.1636(1) b: 8.9606(5) c: 9.3554(1) alpha: 90.962(7) beta: 100.477(5) gamma: 89.52(2) volume: 425.58(3) crystal system: triclinic
x	intensity
5	0
5.22	3.244
5.44	2.943
5.66	6.185
5.88	11.891
6.1	16.084
6.32	22.919
6.54	48.937
6.76	20.047
6.98	7.495
7.2	16.585
7.42	3.104
7.64	13.096
7.86	15.091
8.08	12.114
8.3	1.938
8.52	8.553
8.74	37.336
8.96	4.231
9.18	40.493
9.4	163.826
9.62	2183.13
9.84	150.437
10.06	36.895
10.28	27.005
10.5	18.179
10.72	3.511
10.94	3.476
11.16	1.64
11.38	5.074
11.6	5.522
11.82	8.222
12.04	7.062
12.26	5.514
12.48	3.12
12.7	11.877
12.92	5.1
13.14	9.029
13.36	7.848
13.58	1.137
13.8	2.077
14.02	4.146
14.24	1.94
14.46	1.371
14.68	11.534
14.9	7.775
15.12	10.948
15.34	9.543
15.56	11.915
15.78	6.028
16	3.12
16.22	2.823
16.44	6.48
16.66	6.043
16.88	10.591
17.1	11.161
17.32	11.615
17.54	12.482
17.76	7.85
17.98	7.025
18.2	5.396
18.42	7.008
18.64	16.46
18.86	22.008
19.08	63.652
19.3	1438.67
19.52	88.614
19.74	13.573
19.96	25.632
20.18	0.985
20.4	9.557
20.62	21.444
20.84	14.646
21.06	0.933
21.28	6.247
21.5	20.432
21.72	15.314
21.94	2.57
22.16	9.763
22.38	1.998
22.6	0.881
22.82	6.956
23.04	10.545
23.26	6.216
23.48	11.677
23.7	4.742
23.92	3.586
24.14	5.911
24.36	2.246
24.58	0.033
24.8	14.045
25.02	7.73
25.24	1.141
25.46	6.185
25.68	7.918
25.9	9.158
26.12	17.178
26.34	36.882
26.56	2.353
26.78	5.884
27	6.436
27.22	7.804
27.44	11.284
27.66	1.572
27.88	16.391
28.1	22.168
28.32	25.513
28.54	31.559
28.76	79.3
28.98	457.19
29.2	2793.92
29.42	135.719
29.64	40.748
29.86	4.782
30.08	10.506
30.3	9.732
30.52	2.839
30.74	18.52
30.96	22.825
31.18	5.665
31.4	10.283
31.62	19.549
31.84	14.166
32.06	28.808
32.28	4.45
32.5	12.63
32.72	15.068
32.94	4.409
33.16	7.862
33.38	12.811
33.6	11.844
33.82	5.622
34.04	3.808
34.26	8.58
34.48	0.784
34.7	4.549
34.92	19.775
35.14	28.314
35.36	15.64
35.58	12.571
35.8	2.789
36.02	4.118
36.24	4.515
36.46	8.888
36.68	14.622
36.9	7.881
37.12	17.4
37.34	17.074
37.56	7.665
37.78	14.789
38	13.811
38.22	4.831
38.44	2.794
38.66	14.972
38.88	13.65
39.1	91.495
39.32	88.832
39.54	19.258
39.76	7.651
39.98	14.741
40.2	1.749
40.42	16.935
40.64	5.175
40.86	8.51
41.08	14.402
41.3	15.495
41.52	12.513
41.74	26.082
41.96	17.859
42.18	1.701
42.4	7.041
42.62	4.636
42.84	8.025
43.06	3.662
43.28	8.883
43.5	15.755
43.72	12.797
43.94	14.967
44.16	2.408
44.38	9.878
44.6	15.277
44.82	3.257
45.04	0.903
45.26	4.762
45.48	17.727
45.7	8.972
45.92	6.574
46.14	14.332
46.36	6.484
46.58	3.166
46.8	6.231
47.02	15.195
47.24	4.545
47.46	1.574
47.68	0.01
47.9	2.33
48.12	5.647
48.34	17.215
48.56	9.491
48.78	9.186
49	12.35
49.22	33.53
49.44	106.316
49.66	262.965
49.88	34.22
50.1	2.858
50.32	7.596
50.54	1.625
50.76	1.713
50.98	13.948
51.2	6.515
51.42	2.238
51.64	3.802
51.86	1.821
52.08	1.739
52.3	4.237
52.52	10.415
52.74	2.795
52.96	2.65
53.18	2.753
53.4	2.844
53.62	9.13
53.84	9.963
54.06	15.913
54.28	12.086
54.5	7.657
54.72	12.537
54.94	0.743
55.16	3.526
55.38	6.239
55.6	9.904
55.82	10.918
56.04	11.491
56.26	7.995
56.48	12.927
56.7	5.777
56.92	4.744
57.14	0.978
57.36	9.302
57.58	17.641
57.8	8.143
58.02	5.638
58.24	12.232
58.46	11.701
58.68	3.821
58.9	13.268
59.12	0.411
59.34	2.448
59.56	11.446
59.78	10.276
60	2.4
60.22	26.279
60.44	46.855
60.66	10.131
60.88	7.978
61.1	7.833
61.32	11.524
61.54	1.365
61.76	1.162
61.98	1.064
62.2	4.143
62.42	4.335
62.64	2.815
62.86	5.108
63.08	4.393
63.3	9.496
63.52	6.631
63.74	2.784
63.96	5.73
64.18	11.735
64.4	13.697
64.62	13.029
64.84	6.702
65.06	6.37
65.28	11.102
65.5	2.934
65.72	0.129
65.94	4.721
66.16	13.739
66.38	0.552
66.6	5.085
66.82	9.938
67.04	2.487
67.26	0.2
67.48	7.805
67.7	15.534
67.92	9.619
68.14	3.364
68.36	16.611
68.58	9.558
68.8	8.833
69.02	10.278
69.24	4.761
69.46	13.238
69.68	4.932
69.9	0.187
70.12	8.408
70.34	8.224
70.56	11.24
70.78	4.214
71	2.128
71.22	14.056
71.44	9.679
71.66	10.527
71.88	52.248
72.1	15.225
72.32	5.45
72.54	5.615
72.76	4.016
72.98	1.444
73.2	0.824
73.42	1.855
73.64	0.852
73.86	7.151
74.08	6.366
74.3	6.34
74.52	9.131
74.74	17.088
74.96	4.067
75.18	2.802
75.4	4.548
75.62	11.384
75.84	2.261
76.06	5.898
76.28	9.198
76.5	3.387
76.72	5.398
76.94	3.781
77.16	5.857
77.38	4.978
77.6	9.083
77.82	0.698
78.04	2.383
78.26	10.06
78.48	9.126
78.7	10.07
78.92	3.901
79.14	7.009
79.36	6.034
79.58	0.101
79.8	7.062
80.02	10.382
80.24	3.409
80.46	3.555
80.68	4.588
80.9	7.535
81.12	12.58
81.34	2.59
81.56	6.945
81.78	7.84
82	9.011
82.22	3.652
82.44	1.569
82.66	5.486
82.88	4.369
83.1	6.102
83.32	9.853
83.54	5.492
83.76	1.43
83.98	7.729
84.2	8.509
84.42	1.355
84.64	6.283
84.86	8.585
85.08	7.504
85.3	1.785
85.52	5.025
85.74	8.322
85.96	1.722
86.18	5.263
86.4	1.588
86.62	7.02
86.84	6.915
87.06	7.043
87.28	6.837
87.5	7.886
87.72	0.268
87.94	17.685
88.16	1.622
88.38	5.357
88.6	6.272
88.82	11.005
89.04	11.09
89.26	13.311
89.48	7.372
89.7	8.053
89.92	6.582
