Measurement: Powder, Xray Data XY Processed
Mineral: Pyrope
Rruff sample: R060445
Ideal chemistry: Mg_3_Al_2_(SiO_4_)_3_
Locality: Tanzania
Source: Gemological Institute of America
Description: Deep red water worn pebble, variety rhodolite
Diffraction sample description: Powder
Measured chemistry: (Mg_1.83_Fe_1.08_Ca_0.07_Mn_0.02_)_Î£=3_Al_2.00_(Si_1.00_O_4_)_3_
Cell parameters: a: 11.4941(1) b: 11.4941(1) c: 11.4941(1) alpha: 90. beta: 90. gamma: 90. volume: 1518.54(6) crystal system: cubic
x	intensity
5	0
5.22	7.991
5.44	3.23
5.66	21.431
5.88	12.441
6.1	14.648
6.32	14.533
6.54	13.249
6.76	11.087
6.98	9.24
7.2	20.826
7.42	9.275
7.64	3.527
7.86	9.509
8.08	24.178
8.3	0.665
8.52	7.633
8.74	15.768
8.96	13.404
9.18	5.599
9.4	11.562
9.62	9.25
9.84	12.676
10.06	0.777
10.28	10.795
10.5	6.693
10.72	11.681
10.94	22.17
11.16	4.789
11.38	10.645
11.6	1.15
11.82	5.002
12.04	1.079
12.26	8.897
12.48	12.714
12.7	4.547
12.92	15.76
13.14	8.996
13.36	15.756
13.58	5.268
13.8	19.614
14.02	2.143
14.24	8.27
14.46	19.778
14.68	21.327
14.9	9.164
15.12	9.505
15.34	10.836
15.56	10.642
15.78	5.477
16	25.446
16.22	15.861
16.44	13.44
16.66	2.793
16.88	28.481
17.1	12.509
17.32	7.322
17.54	0.947
17.76	1.858
17.98	21.611
18.2	15.48
18.42	1.958
18.64	10.408
18.86	11.116
19.08	6.487
19.3	8.496
19.52	4.542
19.74	0.564
19.96	13.404
20.18	18.326
20.4	3.793
20.62	29.018
20.84	16.449
21.06	8.472
21.28	11.387
21.5	2.337
21.72	8.631
21.94	12.487
22.16	18.218
22.38	11.114
22.6	18.008
22.82	11.546
23.04	11.504
23.26	2.346
23.48	10.593
23.7	8.719
23.92	11.191
24.14	21.224
24.36	13.62
24.58	7.815
24.8	10.069
25.02	6.21
25.24	9.441
25.46	10.498
25.68	23.586
25.9	18.39
26.12	4.203
26.34	8.261
26.56	26.369
26.78	17.069
27	6.953
27.22	4.204
27.44	8.557
27.66	6.059
27.88	4.665
28.1	26.41
28.32	0.585
28.54	11.799
28.76	12.366
28.98	12.074
29.2	20.243
29.42	9.834
29.64	8.395
29.86	3.06
30.08	18.932
30.3	20.961
30.52	10.113
30.74	23.003
30.96	15.682
31.18	148.639
31.4	29.977
31.62	22.774
31.84	13.906
32.06	2.775
32.28	9.975
32.5	25.371
32.72	13.284
32.94	6.006
33.16	18.502
33.38	2.057
33.6	2.626
33.82	4.001
34.04	16.585
34.26	6.552
34.48	14.006
34.7	1.75
34.92	594.054
35.14	34.745
35.36	10.271
35.58	16.482
35.8	23.667
36.02	6.116
36.24	6.366
36.46	19.814
36.68	95.617
36.9	4.523
37.12	15.403
37.34	10.584
37.56	20.111
37.78	20.775
38	2.871
38.22	9.426
38.44	33.203
38.66	19.474
38.88	21.583
39.1	4.014
39.32	10.766
39.54	1.047
39.76	11.106
39.98	78.834
40.2	29.923
40.42	11.033
40.64	1.103
40.86	18.41
41.08	12.027
41.3	20.315
41.52	7.352
41.74	19.608
41.96	7.306
42.18	11.129
42.4	6.033
42.62	1.352
42.84	9.729
43.06	9.933
43.28	16.511
43.5	19.368
43.72	3.127
43.94	0.483
44.16	12.681
44.38	9.177
44.6	35.848
44.82	18.465
45.04	26.016
45.26	9.094
45.48	8.709
45.7	11.455
45.92	8.597
46.14	19.152
46.36	1.499
46.58	13.492
46.8	1.297
47.02	11.931
47.24	3.442
47.46	7.84
47.68	3.827
47.9	22.548
48.12	11.265
48.34	22.812
48.56	14.521
48.78	26.259
49	62.123
49.22	2.209
49.44	9.052
49.66	6.25
49.88	1.891
50.1	0.955
50.32	19.495
50.54	10.2
50.76	7.571
50.98	7.851
51.2	5.635
51.42	19.699
51.64	21.379
51.86	10.245
52.08	16.243
52.3	13.636
52.52	12.703
52.74	26.632
52.96	12.893
53.18	3.03
53.4	16.785
53.62	6.797
53.84	0.817
54.06	18.778
54.28	12.48
54.5	22.415
54.72	5.552
54.94	15.774
55.16	3.773
55.38	98.042
55.6	25.636
55.82	22.13
56.04	8.43
56.26	8.831
56.48	22.83
56.7	7.534
56.92	3.074
57.14	12.978
57.36	3.719
57.58	27.343
57.8	54.465
58.02	103.304
58.24	1.626
58.46	9.144
58.68	1.967
58.9	6.078
59.12	7.241
59.34	10.551
59.56	13.056
59.78	7.449
60	17.792
60.22	159.937
60.44	107.117
60.66	18.374
60.88	25.065
61.1	15.44
61.32	10.79
61.54	23.016
61.76	6.401
61.98	8.301
62.2	8.321
62.42	19.317
62.64	14.149
62.86	20.452
63.08	11.385
63.3	16.627
63.52	9.973
63.74	15.961
63.96	15.835
64.18	0.7
64.4	1.957
64.62	21.309
64.84	31.498
65.06	42.325
65.28	10.887
65.5	16.54
65.72	0.104
65.94	8.291
66.16	3.95
66.38	1.189
66.6	10.274
66.82	16.981
67.04	6.186
67.26	2.507
67.48	32.517
67.7	10.859
67.92	17.62
68.14	7.962
68.36	25.058
68.58	33.678
68.8	1.573
69.02	9.125
69.24	18.898
69.46	2.931
69.68	10.79
69.9	4.105
70.12	7.943
70.34	7.581
70.56	1.891
70.78	15.335
71	25.051
71.22	9.066
71.44	21.1
71.66	0.04
71.88	12.279
72.1	17.23
72.32	11.018
72.54	13.979
72.76	1.899
72.98	3.25
73.2	13.77
73.42	8.044
73.64	0.872
73.86	23.673
74.08	12.681
74.3	3.072
74.52	13.914
74.74	4.532
74.96	11.201
75.18	9.71
75.4	31.305
75.62	2.89
75.84	109.492
76.06	40.077
76.28	16.254
76.5	15.185
76.72	3.711
76.94	5.481
77.16	13.06
77.38	19.647
77.6	5.218
77.82	14.159
78.04	15.288
78.26	10.974
78.48	5.693
78.7	5.342
78.92	5.886
79.14	0.849
79.36	18.082
79.58	0.461
79.8	12.724
80.02	1.427
80.24	14.519
80.46	13.322
80.68	10.203
80.9	14.613
81.12	12.007
81.34	1.898
81.56	22.989
81.78	5.618
82	28.706
82.22	4.151
82.44	14.709
82.66	6.886
82.88	9.536
83.1	7.234
83.32	1.275
83.54	14.443
83.76	9.922
83.98	6.401
84.2	12.832
84.42	20.07
84.64	9.962
84.86	4.986
85.08	16.442
85.3	24.395
85.52	15.673
85.74	33.253
85.96	9.237
86.18	26.685
86.4	11.005
86.62	16.838
86.84	25.728
87.06	16.43
87.28	16.644
87.5	26.196
87.72	7.601
87.94	11.723
88.16	9.455
88.38	12.08
88.6	26.68
88.82	5.442
89.04	16.292
89.26	6.493
89.48	11.728
89.7	23.592
89.92	14.322
