Measurement: Powder, Xray Data XY Processed
Mineral: Pyrochlore
Rruff sample: R070742
Ideal chemistry: Ca_2_Nb_2_O_7_
Locality: Alakurtti pegmatite, North Karelia, Murmanskaja Oblast', Northern Region, Russia
Source: Michael Scott
Description: Vitreous brown metamict fragments
Diffraction sample description: Powder
x	intensity
5	0
5.22	18.2451
5.44	35.6918
5.66	28.7734
5.88	32.0337
6.1	26.0896
6.32	15.6112
6.54	16.1097
6.76	14.9344
6.98	15.2279
7.2	15.5675
7.42	1.33306
7.64	9.09812
7.86	18.2185
8.08	8.152
8.3	20.0745
8.52	30.2608
8.74	7.38187
8.96	22.7796
9.18	8.44653
9.4	21.0416
9.62	5.61735
9.84	15.6622
10.06	4.21647
10.28	24.6495
10.5	14.6248
10.72	22.9953
10.94	0.742729
11.16	13.1745
11.38	3.27911
11.6	16.7866
11.82	3.25723
12.04	35.2695
12.26	21.0953
12.48	17.9578
12.7	17.3415
12.92	7.4744
13.14	12.78
13.36	32.8443
13.58	10.096
13.8	28.2043
14.02	19.3832
14.24	20.2453
14.46	3.89215
14.68	11.3312
14.9	30.6278
15.12	13.3058
15.34	20.0345
15.56	9.00617
15.78	8.45589
16	17.915
16.22	13.878
16.44	16.3744
16.66	0.837639
16.88	15.8923
17.1	27.0356
17.32	20.8202
17.54	24.0155
17.76	22.1764
17.98	17.732
18.2	19.7943
18.42	29.3291
18.64	8.58313
18.86	30.6611
19.08	19.6131
19.3	45.0207
19.52	15.3935
19.74	0.652779
19.96	0.018005
20.18	2.75238
20.4	19.8928
20.62	22.3302
20.84	9.21719
21.06	12.3608
21.28	24.6576
21.5	5.58774
21.72	12.0785
21.94	30.759
22.16	30.9352
22.38	11.8629
22.6	14.9416
22.82	26.6109
23.04	3.76311
23.26	6.74197
23.48	24.2572
23.7	16.7091
23.92	12.6518
24.14	20.9472
24.36	6.01068
24.58	10.885
24.8	13.8196
25.02	10.8093
25.24	15.0777
25.46	16.1081
25.68	2.96037
25.9	13.5695
26.12	9.49336
26.34	19.454
26.56	2.05995
26.78	4.27238
27	26.4019
27.22	36.3321
27.44	9.77768
27.66	12.2223
27.88	17.0711
28.1	18.6355
28.32	19.1406
28.54	23.0705
28.76	16.4383
28.98	2.58798
29.2	40.1004
29.42	7.37766
29.64	10.9952
29.86	21.5658
30.08	15.3972
30.3	5.63654
30.52	10.9565
30.74	16.6196
30.96	3.11604
31.18	12.3932
31.4	18.2398
31.62	12.2043
31.84	5.3249
32.06	5.63969
32.28	20.1384
32.5	7.29351
32.72	14.7449
32.94	2.59647
33.16	17.5002
33.38	32.8966
33.6	7.45898
33.82	6.13784
34.04	21.0156
34.26	12.5045
34.48	15.5326
34.7	28.6838
34.92	5.10639
35.14	9.76232
35.36	19.4211
35.58	19.4237
35.8	12.0566
36.02	14.8555
36.24	5.77293
36.46	15.4346
36.68	16.1952
36.9	9.74731
37.12	16.3486
37.34	11.8608
37.56	10.5656
37.78	10.9609
38	17.6739
38.22	12.0656
38.44	4.96439
38.66	4.26272
38.88	5.79821
39.1	13.0579
39.32	28.1345
39.54	12.157
39.76	26.1778
39.98	17.3619
40.2	16.4997
40.42	9.8003
40.64	22.5786
40.86	0.855766
41.08	8.71264
41.3	16.853
41.52	18.8173
41.74	17.0094
41.96	13.8404
42.18	1.18752
42.4	13.0206
42.62	6.24345
42.84	9.76379
43.06	4.87014
43.28	8.70773
43.5	16.8369
43.72	32.989
43.94	19.163
44.16	7.64658
44.38	12.958
44.6	0.869335
44.82	14.4317
45.04	9.72265
45.26	13.9838
45.48	5.24709
45.7	10.4645
45.92	7.98034
46.14	19.669
46.36	0.69175
46.58	11.2052
46.8	19.6738
47.02	13.2612
47.24	12.205
47.46	13.5156
47.68	8.78798
47.9	13.3033
48.12	10.7075
48.34	14.3811
48.56	25.3708
48.78	16.9544
49	9.59661
49.22	18.1801
49.44	13.9216
49.66	6.5507
49.88	10.9647
50.1	5.00438
50.32	18.4963
50.54	12.6567
50.76	19.4276
50.98	12.5614
51.2	11.2081
51.42	10.2223
51.64	4.25826
51.86	5.50399
52.08	2.91305
52.3	5.80071
52.52	0.101723
52.74	7.94774
52.96	12.6669
53.18	3.25538
53.4	2.8595
53.62	19.7707
53.84	15.3409
54.06	12.3998
54.28	5.96225
54.5	16.4839
54.72	11.6131
54.94	15.7846
55.16	4.04275
55.38	10.8297
55.6	4.5139
55.82	15.3483
56.04	10.1003
56.26	19.1494
56.48	6.35083
56.7	14.6785
56.92	6.71386
57.14	9.00306
57.36	0.998083
57.58	10.018
57.8	8.6329
58.02	17.4469
58.24	6.96967
58.46	0.795477
58.68	5.19841
58.9	2.45243
59.12	7.41878
59.34	6.5713
59.56	7.92087
59.78	0.191616
60	1.66778
60.22	3.84557
60.44	11.2158
60.66	7.14264
60.88	9.42501
61.1	6.72312
61.32	10.9723
61.54	15.7854
61.76	5.4324
61.98	6.32953
62.2	9.42102
62.42	12.392
62.64	23.2216
62.86	7.45901
63.08	6.52366
63.3	3.7353
63.52	14.0241
63.74	8.14626
63.96	7.49297
64.18	1.83702
64.4	12.7566
64.62	13.0302
64.84	21.1493
65.06	10.6343
65.28	8.89675
65.5	2.22112
65.72	8.18585
65.94	9.30281
66.16	5.45892
66.38	2.31357
66.6	0.912106
66.82	7.01638
67.04	15.2807
67.26	11.2565
67.48	5.86183
67.7	5.87744
67.92	3.86344
68.14	0.285999
68.36	14.0843
68.58	5.51218
68.8	11.6236
69.02	9.35731
69.24	0.467928
69.46	7.27423
69.68	10.597
69.9	11.6767
70.12	2.61408
70.34	20.3165
70.56	14.1831
70.78	0.681541
71	10.1573
71.22	4.47617
71.44	10.7881
71.66	5.48682
71.88	7.94022
72.1	13.8405
72.32	14.9085
72.54	11.0168
72.76	2.15172
72.98	15.4624
73.2	17.4566
73.42	11.27
73.64	1.03181
73.86	9.20049
74.08	1.62773
74.3	18.5388
74.52	16.5735
74.74	2.61596
74.96	1.74527
75.18	19.3627
75.4	7.93785
75.62	4.01261
75.84	7.13053
76.06	0.175472
76.28	17.2599
76.5	13.4699
76.72	2.58541
76.94	9.77039
77.16	12.7802
77.38	6.02851
77.6	8.97636
77.82	12.0833
78.04	10.1714
78.26	7.22596
78.48	0.235392
78.7	16.3418
78.92	9.2905
79.14	1.08703
79.36	9.96986
79.58	8.75306
79.8	8.38658
80.02	4.33934
80.24	17.4082
80.46	10.2879
80.68	5.64541
80.9	2.70681
81.12	21.4135
81.34	7.44858
81.56	12.671
81.78	0.207634
82	5.69882
82.22	0.618164
82.44	17.7836
82.66	2.6511
82.88	7.29394
83.1	5.85788
83.32	1.14891
83.54	11.0172
83.76	4.95192
83.98	15.0195
84.2	4.65492
84.42	1.13214
84.64	14.0476
84.86	1.16631
85.08	13.3088
85.3	8.80805
85.52	7.91804
85.74	16.8395
85.96	8.11757
86.18	8.32689
86.4	8.09539
86.62	0.14048
86.84	4.83874
87.06	15.3493
87.28	11.2486
87.5	1.1363
87.72	1.20614
87.94	1.49108
88.16	12.6429
88.38	7.5693
88.6	5.63826
88.82	3.88884
89.04	13.2314
89.26	5.0347
89.48	3.59727
89.7	6.76503
89.92	9.37635
