Measurement: Powder, Xray Data XY Processed
Mineral: Pyrope
Rruff sample: R050446
Ideal chemistry: Mg_3_Al_2_(SiO_4_)_3_
Locality: Sunset Crater, Arizona, USA
Source: Marcus Origlieri
Description: Red fragment
Diffraction sample description: Powder
Measured chemistry: (Mg_1.93_Fe^2+^_0.65_Ca_0.42_)_Î£=3_Al_2.00_(Si_1.00_O_4_)_3_
Cell parameters: a: 11.54112(7) b: 11.54112(7) c: 11.54112(7) alpha: 90. beta: 90. gamma: 90. volume: 1537.24(3) crystal system: cubic
x	intensity
5	0
5.22	21.144
5.44	11.3742
5.66	12.9303
5.88	17.447
6.1	11.5678
6.32	9.637
6.54	12.6828
6.76	20.762
6.98	19.2109
7.2	3.34865
7.42	18.0845
7.64	10.0522
7.86	16.5127
8.08	16.1258
8.3	6.07126
8.52	17.19
8.74	1.59969
8.96	4.02468
9.18	7.38195
9.4	12.1252
9.62	9.72269
9.84	15.3258
10.06	10.9586
10.28	17.9168
10.5	0.020813
10.72	5.50554
10.94	15.5396
11.16	9.52887
11.38	10.7223
11.6	21.8223
11.82	12.946
12.04	8.30448
12.26	0.621723
12.48	19.9367
12.7	17.9549
12.92	9.53881
13.14	13.2155
13.36	8.14135
13.58	4.03085
13.8	9.74523
14.02	12.0976
14.24	19.4631
14.46	0.687588
14.68	15.7078
14.9	2.92985
15.12	3.50419
15.34	21.6575
15.56	12.1927
15.78	10.2196
16	9.73464
16.22	23.2272
16.44	28.3477
16.66	24.022
16.88	4.01643
17.1	16.7858
17.32	9.3402
17.54	22.4267
17.76	0.358246
17.98	3.86785
18.2	2.53154
18.42	12.0766
18.64	18.7978
18.86	11.3469
19.08	4.06651
19.3	6.21673
19.52	8.14948
19.74	8.99495
19.96	0.999908
20.18	6.20026
20.4	13.8037
20.62	5.07281
20.84	8.98174
21.06	16.0693
21.28	16.2596
21.5	10.4263
21.72	2.77029
21.94	26.2431
22.16	6.38692
22.38	25.9938
22.6	20.5171
22.82	26.3195
23.04	7.95835
23.26	11.9054
23.48	16.3137
23.7	0.784122
23.92	24.9973
24.14	8.08113
24.36	0.894939
24.58	6.84962
24.8	1.23686
25.02	3.49201
25.24	8.48252
25.46	3.2895
25.68	6.13321
25.9	11.82
26.12	3.46909
26.34	3.72781
26.56	11.8954
26.78	14.5474
27	29.3911
27.22	12.1207
27.44	13.2574
27.66	2.09635
27.88	7.53166
28.1	10.5535
28.32	13.8013
28.54	24.6568
28.76	8.96226
28.98	3.01731
29.2	23.1867
29.42	15.3121
29.64	20.6603
29.86	8.04836
30.08	9.35109
30.3	7.94219
30.52	17.7909
30.74	10.1387
30.96	99.6425
31.18	22.1607
31.4	14.3569
31.62	10.0134
31.84	11.0383
32.06	5.60378
32.28	1.22984
32.5	4.08155
32.72	19.4044
32.94	21.5484
33.16	19.8151
33.38	14.3576
33.6	5.91073
33.82	1.53666
34.04	10.1723
34.26	20.5356
34.48	17.7602
34.7	107.123
34.92	114.749
35.14	17.8914
35.36	7.32122
35.58	20.8434
35.8	21.9885
36.02	25.6263
36.24	16.8821
36.46	35.8132
36.68	19.9049
36.9	20.8035
37.12	0.880459
37.34	5.13771
37.56	15.7346
37.78	3.11146
38	12.4003
38.22	164.462
38.44	15.6245
38.66	25.7971
38.88	9.27891
39.1	5.83104
39.32	3.15447
39.54	9.65343
39.76	26.002
39.98	40.896
40.2	0.41909
40.42	24.3904
40.64	11.967
40.86	11.412
41.08	12.7561
41.3	13.4385
41.52	4.34331
41.74	17.1469
41.96	13.7271
42.18	17.4982
42.4	21.2621
42.62	4.62303
42.84	10.9229
43.06	46.174
43.28	16.0839
43.5	17.8113
43.72	22.055
43.94	24.1103
44.16	9.93833
44.38	22.8451
44.6	7.01156
44.82	20.3852
45.04	32.0474
45.26	11.6179
45.48	5.95744
45.7	10.3221
45.92	18.2979
46.14	13.2211
46.36	13.4049
46.58	26.4589
46.8	6.74169
47.02	16.802
47.24	16.5608
47.46	14.5033
47.68	0.567272
47.9	13.6431
48.12	1.36437
48.34	17.5404
48.56	30.4519
48.78	100.93
49	28.3276
49.22	5.35464
49.44	10.968
49.66	6.87793
49.88	9.11352
50.1	34.2888
50.32	15.4453
50.54	0.782665
50.76	2.64366
50.98	10.8608
51.2	0.684032
51.42	9.87872
51.64	2.36423
51.86	23.8264
52.08	17.2812
52.3	1.1084
52.52	19.4003
52.74	0.450703
52.96	0.192726
53.18	11.1389
53.4	0.005245
53.62	2.42647
53.84	11.4106
54.06	8.64261
54.28	9.5874
54.5	12.2776
54.72	12.7696
54.94	19.9898
55.16	61.0209
55.38	10.1572
55.6	14.9428
55.82	0.870522
56.04	12.8407
56.26	3.54402
56.48	24.2461
56.7	18.8785
56.92	14.0827
57.14	9.70802
57.36	16.0678
57.58	265.363
57.8	40.0693
58.02	13.8012
58.24	3.89089
58.46	24.8514
58.68	20.8869
58.9	15.0163
59.12	10.2529
59.34	4.43497
59.56	0.339085
59.78	19.4059
60	235.08
60.22	46.3097
60.44	15.9607
60.66	5.21057
60.88	2.4906
61.1	3.56405
61.32	9.33458
61.54	7.78259
61.76	4.22023
61.98	10.4326
62.2	17.0293
62.42	24.0621
62.64	9.89357
62.86	6.14046
63.08	3.8079
63.3	11.1198
63.52	15.1856
63.74	5.64509
63.96	6.34459
64.18	9.00416
64.4	13.804
64.62	44.6645
64.84	14.6773
65.06	9.50353
65.28	5.13414
65.5	9.62014
65.72	31.2321
65.94	6.63857
66.16	10.6584
66.38	11.7508
66.6	3.21421
66.82	13.3251
67.04	10.4289
67.26	13.0335
67.48	10.7258
67.7	10.9055
67.92	32.4796
68.14	10.8628
68.36	11.0683
68.58	6.01513
68.8	8.92325
69.02	20.7908
69.24	14.8006
69.46	9.76341
69.68	8.32392
69.9	15.7772
70.12	22.0214
70.34	26.6822
70.56	23.5624
70.78	0.63591
71	7.64958
71.22	7.4454
71.44	12.3086
71.66	6.44795
71.88	2.52481
72.1	10.2621
72.32	15.9751
72.54	14.1226
72.76	2.91868
72.98	13.5946
73.2	9.16058
73.42	23.7978
73.64	13.1625
73.86	21.7213
74.08	4.59705
74.3	19.4221
74.52	14.5218
74.74	40.501
74.96	5.16606
75.18	8.396
75.4	25.3672
75.62	26.5366
75.84	5.66311
76.06	17.0805
76.28	14.3387
76.5	0.009197
76.72	7.80987
76.94	4.07262
77.16	7.74667
77.38	20.3678
77.6	24.6003
77.82	17.8106
78.04	6.85163
78.26	2.44185
78.48	11.6669
78.7	37.4935
78.92	1.75662
79.14	14.0614
79.36	18.0434
79.58	9.54271
79.8	0.811821
80.02	26.3158
80.24	13.4899
80.46	9.24135
80.68	24.9339
80.9	1.42581
81.12	5.97183
81.34	14.2359
81.56	6.83651
81.78	0.106091
82	4.53295
82.22	14.2065
82.44	6.06825
82.66	24.1964
82.88	4.65513
83.1	30.5919
83.32	13.5116
83.54	10.4633
83.76	10.0844
83.98	16.3619
84.2	15.5707
84.42	14.1533
84.64	13.326
84.86	11.0098
85.08	5.45464
85.3	12.6719
85.52	4.36366
85.74	23.3315
85.96	11.3886
86.18	3.27248
86.4	5.9436
86.62	16.2401
86.84	18.436
87.06	15.741
87.28	7.15255
87.5	12.0961
87.72	6.6971
87.94	25.1371
88.16	6.03548
88.38	19.9856
88.6	17.3699
88.82	19.0035
89.04	22.1265
89.26	15.5577
89.48	11.6361
89.7	14.2579
89.92	13.2645
