Measurement: Powder, Xray Data XY Processed
Mineral: Pyrosmalite-(Fe)
Rruff sample: R050158
Ideal chemistry: Fe^2+^_8_Si_6_O_15_(OH)_10_
Locality: Burguillos del Cerro, Badajos, Spain
Source: Jim McGlasson
Description: Green subhedral crystal aggregate
Diffraction sample description: Powder
Measured chemistry: (Fe^2+^_0.92_Mn^2+^_0.06_Mg_0.02_)_8_Si_6_O_15_(OH_0.83_Cl_0.17_)_10_
Cell parameters: a: 13.3189(8) b: 13.3189(8) c: 7.0942(3) alpha: 90.0 beta: 90.0 gamma: 120.0 volume: 1089.9(1) crystal system: hexagonal
x	intensity
5	0
5.22	31.6964
5.44	31.6071
5.66	5.75101
5.88	17.1912
6.1	26.179
6.32	16.4911
6.54	18.8902
6.76	21.568
6.98	0.394142
7.2	21.712
7.42	23.1104
7.64	26.571
7.86	4.62679
8.08	18.2109
8.3	18.5582
8.52	14.7213
8.74	12.9884
8.96	0.3246
9.18	20.5558
9.4	33.1055
9.62	16.593
9.84	3.30288
10.06	23.192
10.28	19.8867
10.5	12.0168
10.72	29.1541
10.94	29.0088
11.16	13.7503
11.38	42.5894
11.6	21.1053
11.82	19.7643
12.04	45.2037
12.26	32.6082
12.48	922.71
12.7	46.0706
12.92	30.4898
13.14	8.42267
13.36	10.1458
13.58	14.5711
13.8	16.9048
14.02	15.2577
14.24	11.5561
14.46	32.1146
14.68	113.259
14.9	0.104446
15.12	10.2062
15.34	15.9892
15.56	13.6792
15.78	48.2638
16	41.532
16.22	32.6517
16.44	27.0508
16.66	7.18303
16.88	8.5063
17.1	16.9835
17.32	29.9876
17.54	31.6591
17.76	3.3425
17.98	28.1346
18.2	46.609
18.42	53.1868
18.64	31.2824
18.86	4.30606
19.08	30.0931
19.3	25.7361
19.52	24.6295
19.74	32.3015
19.96	23.1715
20.18	28.8575
20.4	50.0629
20.62	11.3889
20.84	31.8236
21.06	28.5118
21.28	8.89983
21.5	29.9268
21.72	20.7058
21.94	15.4398
22.16	5.47519
22.38	11.8069
22.6	0.617462
22.82	0.180222
23.04	6.44876
23.26	10.3704
23.48	7.89204
23.7	21.9562
23.92	41.94
24.14	6.66736
24.36	17.6348
24.58	10.3477
24.8	1.42915
25.02	121.384
25.24	15.3348
25.46	15.43
25.68	4.2603
25.9	42.2744
26.12	30.8478
26.34	112.347
26.56	14.2824
26.78	5.73271
27	26.7796
27.22	4.44945
27.44	3.87482
27.66	19.3196
27.88	2.88281
28.1	31.8898
28.32	17.7973
28.54	37.0834
28.76	30.2441
28.98	8.76849
29.2	21.6131
29.42	35.1551
29.64	35.5201
29.86	9.88147
30.08	22.6531
30.3	6.62151
30.52	27.578
30.74	38.5289
30.96	56.0904
31.18	26.9639
31.4	15.7797
31.62	1.32614
31.84	5.77206
32.06	21.6675
32.28	6.82788
32.5	42.1426
32.72	6.11441
32.94	24.2741
33.16	6.83292
33.38	46.1379
33.6	232.489
33.82	17.9177
34.04	51.0561
34.26	3.25641
34.48	37.8345
34.7	5.72754
34.92	0.999802
35.14	3.15082
35.36	1.30365
35.58	34.8931
35.8	20.9918
36.02	12.3897
36.24	14.1043
36.46	13.0206
36.68	30.3385
36.9	5.62256
37.12	8.27214
37.34	50.3455
37.56	28.4535
37.78	12.8512
38	44.6948
38.22	36.4071
38.44	28.3491
38.66	16.431
38.88	16.9792
39.1	54.525
39.32	22.4561
39.54	9.22667
39.76	25.6836
39.98	14.5984
40.2	87.0767
40.42	96.176
40.64	19.3542
40.86	9.11618
41.08	40.4853
41.3	21.6632
41.52	8.8289
41.74	31.9589
41.96	15.5099
42.18	39.1287
42.4	23.0166
42.62	34.9222
42.84	8.01302
43.06	18.2581
43.28	20.3524
43.5	18.3732
43.72	26.5923
43.94	13.5876
44.16	33.3725
44.38	6.78618
44.6	10.5662
44.82	33.2217
45.04	9.56602
45.26	31.374
45.48	9.7039
45.7	14.2177
45.92	27.2015
46.14	30.2306
46.36	17.6384
46.58	8.72693
46.8	12.089
47.02	10.5335
47.24	3.25682
47.46	22.6645
47.68	44.8792
47.9	9.0098
48.12	21.1867
48.34	15.8193
48.56	41.7751
48.78	33.2554
49	24.9371
49.22	13.8483
49.44	31.9181
49.66	51.6905
49.88	104.763
50.1	49.0507
50.32	16.6582
50.54	21.8291
50.76	27.3841
50.98	15.5002
51.2	32.3654
51.42	10.8472
51.64	21.5746
51.86	0.951187
52.08	30.107
52.3	6.76726
52.52	0.613922
52.74	18.1957
52.96	20.5392
53.18	19.8248
53.4	26.6094
53.62	35.6251
53.84	15.9723
54.06	8.12653
54.28	6.1255
54.5	15.9238
54.72	8.92384
54.94	23.0964
55.16	33.4778
55.38	31.7735
55.6	15.9073
55.82	42.7794
56.04	25.9273
56.26	29.4135
56.48	9.50032
56.7	61.001
56.92	65.0833
57.14	35.2323
57.36	10.5539
57.58	29.2606
57.8	10.9311
58.02	2.66894
58.24	7.05461
58.46	14.444
58.68	10.5206
58.9	21.6409
59.12	11.339
59.34	32.1561
59.56	19.0991
59.78	10.1271
60	18.8093
60.22	13.2796
60.44	3.64896
60.66	15.2342
60.88	8.23975
61.1	30.4065
61.32	76.8318
61.54	66.9136
61.76	21.3411
61.98	35.1589
62.2	21.1365
62.42	9.69057
62.64	14.4888
62.86	14.527
63.08	13.7775
63.3	15.6654
63.52	10.9251
63.74	20.9291
63.96	47.6741
64.18	20.6356
64.4	1.17911
64.62	12.028
64.84	9.63603
65.06	26.2943
65.28	9.31326
65.5	1.25145
65.72	26.3779
65.94	33.8021
66.16	8.54355
66.38	10.5892
66.6	31.2422
66.82	23.6177
67.04	50.5312
67.26	12.0086
67.48	25.9132
67.7	32.3901
67.92	23.1905
68.14	30.5038
68.36	14.9028
68.58	24.7968
68.8	38.1664
69.02	4.05133
69.24	31.1833
69.46	18.2812
69.68	21.1893
69.9	31.0153
70.12	45.0471
70.34	60.0725
70.56	9.22615
70.78	22.7164
71	14.26
71.22	31.3929
71.44	23.6283
71.66	6.00613
71.88	11.1284
72.1	13.1164
72.32	22.0217
72.54	19.9203
72.76	1.58836
72.98	8.41356
73.2	18.899
73.42	12.6611
73.64	40.5286
73.86	43.7552
74.08	23.9628
74.3	18.68
74.52	9.0602
74.74	15.7714
74.96	21.0919
75.18	25.3166
75.4	33.7426
75.62	21.0793
75.84	30.0901
76.06	29.2267
76.28	9.0163
76.5	17.7178
76.72	14.7411
76.94	46.6274
77.16	19.8719
77.38	45.1491
77.6	25.1173
77.82	11.9842
78.04	27.0772
78.26	0.725403
78.48	21.1909
78.7	3.98723
78.92	26.9035
79.14	25.3132
79.36	21.6343
79.58	24.1656
79.8	36.1088
80.02	18.4628
80.24	32.2331
80.46	14.9063
80.68	13.6416
80.9	7.61374
81.12	53.7003
81.34	23.4979
81.56	41.1728
81.78	16.3244
82	24.8629
82.22	27.9494
82.44	1.35103
82.66	19.8704
82.88	27.2976
83.1	15.6245
83.32	13.9636
83.54	2.38442
83.76	26.4329
83.98	9.35356
84.2	5.61791
84.42	28.4623
84.64	33.5754
84.86	13.4086
85.08	34.8307
85.3	32.3348
85.52	36.4973
85.74	6.42035
85.96	25.9007
86.18	7.6862
86.4	4.75349
86.62	30.5753
86.84	22.7469
87.06	25.7229
87.28	40.9464
87.5	18.8687
87.72	33.7837
87.94	4.18831
88.16	36.0495
88.38	19.0637
88.6	12.0006
88.82	24.4846
89.04	32.4693
89.26	24.1626
89.48	25.8917
89.7	16.4799
89.92	17.8462
