Measurement: Powder, Xray Data XY Processed
Mineral: Pyrope
Rruff sample: R050112
Ideal chemistry: Mg_3_Al_2_(SiO_4_)_3_
Locality: Cruzeiro mine, San Jose, Minas Gerais, Brazil
Source: Carlos and Paulo Vasconcelos
Description: Dark red crystal fragment
Diffraction sample description: Powder
Measured chemistry: (Mg_1.49_Fe^2+^_1.18_Ca_0.29_Mn_0.04_)_Σ=3_(Al_1.99_Fe^3+^_0.01_)_Σ=2_(Si_1.00_O_4_)_3_
Cell parameters: a: 11.5306(1) b: 11.5306(1) c: 11.5306(1) alpha: 90. beta: 90. gamma: 90. volume: 1533.08(6) crystal system: cubic
x	intensity
5	0
5.22	13.486
5.44	16.272
5.66	11.56
5.88	24.453
6.1	16.228
6.32	9.878
6.54	17.028
6.76	27.488
6.98	12.678
7.2	9.371
7.42	9.948
7.64	16.441
7.86	12.94
8.08	7.859
8.3	2.946
8.52	11.431
8.74	16.557
8.96	21.847
9.18	19.799
9.4	2.678
9.62	18.897
9.84	15.974
10.06	19.415
10.28	24.498
10.5	21.288
10.72	24.832
10.94	45.92
11.16	14.372
11.38	12.384
11.6	18.053
11.82	8.36
12.04	41.62
12.26	42.525
12.48	25.066
12.7	10.634
12.92	17.599
13.14	2.63
13.36	17.384
13.58	13.888
13.8	20.355
14.02	17.828
14.24	30.17
14.46	40.223
14.68	14.433
14.9	12.479
15.12	1.559
15.34	16.426
15.56	0.211
15.78	28.37
16	5.357
16.22	4.755
16.44	25.272
16.66	0.915
16.88	8.06
17.1	22.668
17.32	22.756
17.54	15.023
17.76	19.014
17.98	13.015
18.2	22.977
18.42	9.538
18.64	28.428
18.86	19.838
19.08	1.457
19.3	31.29
19.52	9.792
19.74	6.917
19.96	34.776
20.18	13.857
20.4	20.827
20.62	31.738
20.84	30.996
21.06	22.152
21.28	15.833
21.5	7.872
21.72	25.379
21.94	7.495
22.16	19.822
22.38	2.12
22.6	4.748
22.82	1.33
23.04	30.53
23.26	7.934
23.48	11.368
23.7	23.597
23.92	13.026
24.14	20.587
24.36	7.545
24.58	13.465
24.8	3.293
25.02	34.909
25.24	23.106
25.46	18.452
25.68	19.903
25.9	23.65
26.12	17.597
26.34	14.603
26.56	23.761
26.78	24.773
27	5.772
27.22	11.736
27.44	37.078
27.66	27.353
27.88	10.985
28.1	21.342
28.32	0.496
28.54	15.334
28.76	34.388
28.98	14.404
29.2	3.428
29.42	22.173
29.64	21.444
29.86	15.643
30.08	13.968
30.3	20.868
30.52	24.951
30.74	30.794
30.96	41.546
31.18	37.418
31.4	16.375
31.62	10.01
31.84	0.112
32.06	6.031
32.28	6.74
32.5	14.517
32.72	15.805
32.94	19.393
33.16	6.937
33.38	4.125
33.6	13.255
33.82	35.903
34.04	15.931
34.26	5.493
34.48	11.354
34.7	47.674
34.92	141.792
35.14	14.569
35.36	27.207
35.58	20.772
35.8	16.519
36.02	2.021
36.24	9.12
36.46	32.322
36.68	47.488
36.9	9.3
37.12	5.92
37.34	18.249
37.56	10.557
37.78	18.559
38	23.762
38.22	210.821
38.44	24.411
38.66	17.421
38.88	2.978
39.1	26.337
39.32	11.061
39.54	29.651
39.76	24.389
39.98	143.714
40.2	11.043
40.42	10.656
40.64	14.56
40.86	15.874
41.08	16.229
41.3	6.614
41.52	14.517
41.74	50.611
41.96	3.437
42.18	23.457
42.4	0.531
42.62	24.004
42.84	23.706
43.06	91.207
43.28	46.006
43.5	2.184
43.72	31.279
43.94	21.074
44.16	14.711
44.38	23.786
44.6	25.916
44.82	17.715
45.04	20.802
45.26	6.286
45.48	11.266
45.7	15.351
45.92	4.459
46.14	17.118
46.36	7.126
46.58	12.049
46.8	21.269
47.02	19.29
47.24	14.258
47.46	18.251
47.68	27.77
47.9	6.661
48.12	5.504
48.34	12.672
48.56	4.216
48.78	121.769
49	26.983
49.22	22.768
49.44	9.919
49.66	16.694
49.88	4.238
50.1	18.057
50.32	40.803
50.54	4.881
50.76	12.783
50.98	18.016
51.2	30.272
51.42	25.094
51.64	29.829
51.86	17.051
52.08	5.449
52.3	11.975
52.52	2.806
52.74	7.181
52.96	16.342
53.18	17.025
53.4	15.78
53.62	24.79
53.84	20.082
54.06	30.085
54.28	7.869
54.5	23.169
54.72	20.537
54.94	9.417
55.16	92.09
55.38	12.688
55.6	25.43
55.82	24.743
56.04	22.519
56.26	14.436
56.48	6.336
56.7	26.115
56.92	17.319
57.14	3.391
57.36	24.544
57.58	76.562
57.8	276.866
58.02	23.393
58.24	8.542
58.46	2.39
58.68	8.551
58.9	0.821
59.12	29.238
59.34	16.479
59.56	0.693
59.78	21.113
60	267.566
60.22	87.572
60.44	20.838
60.66	3.678
60.88	19.687
61.1	17.026
61.32	27.449
61.54	39.085
61.76	13.548
61.98	5.631
62.2	9.964
62.42	8.255
62.64	16.952
62.86	34.139
63.08	20.092
63.3	22.022
63.52	17.822
63.74	13.37
63.96	13.416
64.18	27.671
64.4	24.869
64.62	79.715
64.84	65.107
65.06	22.946
65.28	8.453
65.5	19.229
65.72	19.936
65.94	18.348
66.16	14.387
66.38	6.222
66.6	4.993
66.82	3.157
67.04	16.499
67.26	21.814
67.48	17.468
67.7	8.241
67.92	31.817
68.14	19.981
68.36	2.977
68.58	17.264
68.8	18.26
69.02	9.183
69.24	2.868
69.46	29.031
69.68	27.757
69.9	26.738
70.12	25.759
70.34	5.474
70.56	15.582
70.78	23.493
71	15.76
71.22	2.707
71.44	25.725
71.66	17.969
71.88	9.544
72.1	8.486
72.32	14.385
72.54	9.986
72.76	5.811
72.98	0.834
73.2	20.641
73.42	126.634
73.64	60.396
73.86	13.959
74.08	21.288
74.3	20.242
74.52	21.027
74.74	12.189
74.96	5.234
75.18	10.38
75.4	21.778
75.62	29.57
75.84	21.317
76.06	16.456
76.28	0.403
76.5	7.061
76.72	23.009
76.94	14.971
77.16	17.851
77.38	7.214
77.6	57.743
77.82	13.467
78.04	3.746
78.26	27.26
78.48	12.247
78.7	22.452
78.92	27.518
79.14	29.613
79.36	13.639
79.58	3.811
79.8	18.391
80.02	0.953
80.24	6.201
80.46	26.304
80.68	25.88
80.9	15.63
81.12	15.68
81.34	17.853
81.56	5.99
81.78	10.884
82	18.695
82.22	0.842
82.44	29.799
82.66	8.745
82.88	26.372
83.1	23.434
83.32	13.272
83.54	22.565
83.76	18.784
83.98	14.725
84.2	1.751
84.42	17.832
84.64	22.02
84.86	18.9
85.08	11.273
85.3	3.825
85.52	0.188
85.74	3.245
85.96	9.456
86.18	16.956
86.4	17.473
86.62	12.421
86.84	19.717
87.06	4.926
87.28	14.806
87.5	16.301
87.72	29.815
87.94	1.678
88.16	5.547
88.38	21.231
88.6	22.853
88.82	17.813
89.04	4.98
89.26	7.055
89.48	8.42
89.7	16.877
89.92	11.22
