Measurement: Powder, Xray Data XY Processed
Mineral: Pyromorphite
Rruff sample: R050027
Ideal chemistry: Pb^2+^_5_(PO_4_)_3_Cl
Locality: Yangshuo, Guangxi Autonomous Region, China
Source: Eugene Schlepp
Description: Light green hexagonal prismatic hoppered single crystals
Diffraction sample description: Powder
Measured chemistry: Pb_5.00_(P_1.00_O_4_)_3_Cl_1.00_
Cell parameters: a: 9.9909(2) b: 9.9909(2) c: 7.3416(3) alpha: 90. beta: 90. gamma: 120. volume: 634.65(3) crystal system: hexagonal
x	intensity
5	0
5.22	8.53083
5.44	7.4289
5.66	10.3106
5.88	4.1993
6.1	10.2443
6.32	18.3754
6.54	18.8668
6.76	15.3331
6.98	15.5258
7.2	11.7697
7.42	5.98752
7.64	9.49549
7.86	1.93866
8.08	1.98164
8.3	6.9694
8.52	11.9167
8.74	4.20982
8.96	0.276588
9.18	6.69775
9.4	7.53758
9.62	11.2847
9.84	4.3292
10.06	8.82586
10.28	2.96219
10.5	8.27477
10.72	13.5756
10.94	0.134438
11.16	3.19849
11.38	11.4584
11.6	1.84891
11.82	9.04126
12.04	9.1631
12.26	3.19155
12.48	3.15819
12.7	11.0503
12.92	6.05769
13.14	7.82515
13.36	5.61925
13.58	6.59222
13.8	1.41177
14.02	5.13991
14.24	7.02815
14.46	7.92601
14.68	7.2735
14.9	4.32849
15.12	5.23941
15.34	5.03532
15.56	7.37308
15.78	3.61745
16	6.58458
16.22	4.58454
16.44	0.597851
16.66	6.62898
16.88	4.5739
17.1	7.23774
17.32	1.54859
17.54	1.53897
17.76	30.5354
17.98	9.28666
18.2	5.13077
18.42	7.14951
18.64	7.19944
18.86	3.97509
19.08	8.94187
19.3	5.65253
19.52	6.07604
19.74	6.5693
19.96	12.2357
20.18	9.84587
20.4	5.42253
20.62	131.933
20.84	2.6063
21.06	6.35918
21.28	8.7137
21.5	82.9262
21.72	14.3821
21.94	8.9332
22.16	13.2064
22.38	1.80536
22.6	5.49665
22.82	5.75425
23.04	3.93991
23.26	8.06899
23.48	7.07055
23.7	2.67454
23.92	20.5231
24.14	14.2448
24.36	32.0793
24.58	2.95219
24.8	2.24577
25.02	3.83097
25.24	0.449188
25.46	3.0571
25.68	1.32742
25.9	5.26311
26.12	2.74569
26.34	62.4336
26.56	25.1827
26.78	3.54975
27	18.637
27.22	28.9016
27.44	30.6082
27.66	6.60891
27.88	3.06257
28.1	0.042789
28.32	3.19346
28.54	2.85017
28.76	3.30112
28.98	6.54332
29.2	3.41324
29.42	5.27434
29.64	17.4119
29.86	114.884
30.08	165.326
30.3	378.483
30.52	42.8883
30.74	12.1259
30.96	49.5191
31.18	43.8019
31.4	2.13249
31.62	5.44792
31.84	5.88941
32.06	11.9736
32.28	4.0431
32.5	5.99788
32.72	6.4736
32.94	4.85743
33.16	8.22453
33.38	6.43858
33.6	4.43331
33.82	6.15759
34.04	3.14555
34.26	0.907825
34.48	4.05548
34.7	6.07558
34.92	0.066779
35.14	10.0307
35.36	3.23281
35.58	6.25681
35.8	10.1253
36.02	11.2164
36.24	7.62494
36.46	0.638474
36.68	1.73843
36.9	10.7183
37.12	7.13488
37.34	10.2511
37.56	4.53152
37.78	2.96624
38	1.75866
38.22	1.21566
38.44	0.679584
38.66	1.15838
38.88	2.03257
39.1	3.77563
39.32	7.75734
39.54	19.2003
39.76	21.6826
39.98	11.2267
40.2	3.60042
40.42	2.51383
40.64	7.29911
40.86	12.1935
41.08	63.7632
41.3	22.7398
41.52	10.8632
41.74	28.0013
41.96	4.10846
42.18	0.409261
42.4	8.43121
42.62	3.33352
42.84	4.02941
43.06	12.7564
43.28	6.32275
43.5	8.37998
43.72	41.8494
43.94	108.152
44.16	14.1813
44.38	5.955
44.6	7.16757
44.82	11.5351
45.04	20.0139
45.26	82.5398
45.48	10.1533
45.7	30.495
45.92	7.69311
46.14	6.82175
46.36	144.575
46.58	24.361
46.8	5.0405
47.02	0.879864
47.24	10.6323
47.46	137.583
47.68	30.3638
47.9	4.18459
48.12	36.0778
48.34	110.168
48.56	5.85074
48.78	26.1448
49	76.1958
49.22	18.166
49.44	7.14171
49.66	46.214
49.88	23.2586
50.1	7.71957
50.32	3.82558
50.54	6.73134
50.76	9.7028
50.98	5.43276
51.2	10.0576
51.42	4.21566
51.64	11.6485
51.86	4.48667
52.08	8.23964
52.3	3.60966
52.52	12.0972
52.74	6.11269
52.96	3.74769
53.18	8.3118
53.4	4.00101
53.62	3.769
53.84	2.68684
54.06	7.28404
54.28	12.5952
54.5	21.6965
54.72	16.0845
54.94	8.37336
55.16	7.04934
55.38	4.0497
55.6	3.01546
55.82	8.07029
56.04	14.4552
56.26	46.5645
56.48	9.47616
56.7	38.104
56.92	15.3806
57.14	4.33618
57.36	3.63093
57.58	60.7745
57.8	33.5121
58.02	3.23823
58.24	11.8772
58.46	2.15662
58.68	0.597972
58.9	6.10724
59.12	20.6554
59.34	6.05598
59.56	17.0157
59.78	43.2425
60	71.8473
60.22	40.9356
60.44	7.1528
60.66	7.80365
60.88	24.5972
61.1	61.0241
61.32	18.7631
61.54	5.42088
61.76	0.754581
61.98	9.67138
62.2	8.06291
62.42	9.60473
62.64	1.8933
62.86	6.2435
63.08	6.02482
63.3	1.18973
63.52	7.41455
63.74	0.304685
63.96	1.33729
64.18	7.40827
64.4	2.63389
64.62	12.9788
64.84	0.150877
65.06	2.98191
65.28	6.966
65.5	0.077363
65.72	1.20556
65.94	3.68862
66.16	8.37398
66.38	18.2086
66.6	8.17135
66.82	17.5998
67.04	13.3127
67.26	0.867535
67.48	8.14586
67.7	5.04485
67.92	4.4222
68.14	14.9445
68.36	7.7296
68.58	4.7108
68.8	1.82048
69.02	25.5087
69.24	6.94247
69.46	5.38507
69.68	8.72379
69.9	11.0383
70.12	35.2417
70.34	30.7996
70.56	7.4334
70.78	1.28736
71	14.3073
71.22	9.04725
71.44	13.2268
71.66	37.7487
71.88	39.8272
72.1	17.0551
72.32	14.6135
72.54	6.2782
72.76	19.9464
72.98	56.1006
73.2	51.0584
73.42	7.03238
73.64	4.25996
73.86	11.9559
74.08	3.30112
74.3	6.23396
74.52	9.74667
74.74	10.3722
74.96	7.52062
75.18	1.65773
75.4	12.2233
75.62	9.04146
75.84	9.06833
76.06	8.75804
76.28	13.296
76.5	4.86882
76.72	9.3966
76.94	5.99359
77.16	0.662234
77.38	7.01945
77.6	5.8412
77.82	4.99334
78.04	2.85126
78.26	15.503
78.48	11.4009
78.7	1.42453
78.92	3.32888
79.14	9.30936
79.36	6.47715
79.58	6.35772
79.8	7.23283
80.02	5.98541
80.24	14.4105
80.46	0.728127
80.68	4.2937
80.9	15.115
81.12	21.8477
81.34	17.5035
81.56	13.3263
81.78	12.0726
82	2.735
82.22	7.50858
82.44	8.8239
82.66	4.58537
82.88	0.335436
83.1	5.27881
83.32	6.59324
83.54	4.04548
83.76	9.5001
83.98	2.81633
84.2	0.66744
84.42	9.67597
84.64	4.99711
84.86	8.39948
85.08	12.3118
85.3	3.27666
85.52	5.54054
85.74	2.95803
85.96	2.17331
86.18	4.40979
86.4	6.65475
86.62	0.828487
86.84	12.8079
87.06	5.71512
87.28	5.30267
87.5	5.10935
87.72	8.62369
87.94	8.13653
88.16	11.6046
88.38	8.27363
88.6	3.91977
88.82	8.56733
89.04	11.1052
89.26	7.88185
89.48	8.62935
89.7	15.9884
89.92	7.46783
