Measurement: Powder, Xray Data XY Processed
Mineral: Pyrosmalite-(Fe)
Rruff sample: R070313
Ideal chemistry: Fe^2+^_8_Si_6_O_15_(OH)_10_
Locality: Broken Hill, New South Wales, Australia
Source: James Shigley
Description: Brownish orange massive associated with galena
Diffraction sample description: Powder
Cell parameters: a: 13.3875(4) b: 13.3875(4) c: 7.1425(2) alpha: 90 beta: 90 gamma: 120 volume: 1108.61(5) crystal system: hexagonal
x	intensity
5	0
5.22	34.2145
5.44	29.4317
5.66	24.142
5.88	23.1319
6.1	17.1365
6.32	23.2244
6.54	17.0098
6.76	23.8234
6.98	32.4853
7.2	36.7788
7.42	19.9304
7.64	80.5292
7.86	8.03947
8.08	5.52274
8.3	29.9423
8.52	36.8592
8.74	18.6875
8.96	5.50155
9.18	6.76917
9.4	0.752113
9.62	9.40929
9.84	13.0137
10.06	41.4245
10.28	2.73035
10.5	5.11897
10.72	0.326202
10.94	31.2223
11.16	25.0323
11.38	35.9752
11.6	10.4556
11.82	12.3272
12.04	24.9071
12.26	80.441
12.48	262.575
12.7	25.9749
12.92	22.3917
13.14	11.0302
13.36	26.1454
13.58	29.2254
13.8	29.4474
14.02	15.6763
14.24	2.78302
14.46	25.9689
14.68	31.7598
14.9	5.98377
15.12	18.13
15.34	32.3772
15.56	34.9948
15.78	58.216
16	28.469
16.22	20.5376
16.44	1.42445
16.66	18.8643
16.88	28.4098
17.1	11.1075
17.32	16.5716
17.54	24.3188
17.76	20.8624
17.98	32.7077
18.2	63.8509
18.42	7.39624
18.64	20.5562
18.86	11.9596
19.08	4.05052
19.3	15.9688
19.52	14.87
19.74	27.7478
19.96	4.80276
20.18	31.139
20.4	17.777
20.62	21.547
20.84	16.0622
21.06	11.6
21.28	23.0337
21.5	36.0643
21.72	25.6584
21.94	15.3005
22.16	13.7483
22.38	28.2301
22.6	22.2724
22.82	8.28769
23.04	5.12494
23.26	4.10402
23.48	31.6559
23.7	22.2814
23.92	46.1325
24.14	31.905
24.36	16.1982
24.58	12.8627
24.8	43.0971
25.02	407.325
25.24	23.2712
25.46	9.1875
25.68	32.4218
25.9	20.5114
26.12	164.421
26.34	26.301
26.56	24.5139
26.78	20.5296
27	34.3344
27.22	33.6472
27.44	21.797
27.66	12.3385
27.88	0.486023
28.1	14.4709
28.32	34.3675
28.54	34.2043
28.76	8.08333
28.98	10.8524
29.2	13.601
29.42	28.6586
29.64	20.2637
29.86	15.4073
30.08	50.8408
30.3	19.7393
30.52	24.4029
30.74	29.4864
30.96	26.2043
31.18	26.0767
31.4	10.6225
31.62	14.8491
31.84	30.1444
32.06	4.31105
32.28	24.4984
32.5	25.1618
32.72	23.9013
32.94	13.4866
33.16	11.9991
33.38	378.154
33.6	15.4893
33.82	15.4249
34.04	20.3794
34.26	31.6191
34.48	29.5047
34.7	29.3105
34.92	19.5798
35.14	2.16013
35.36	2.91753
35.58	35.9224
35.8	1.21246
36.02	28.0485
36.24	1.00636
36.46	20.8135
36.68	4.83208
36.9	20.3929
37.12	22.5525
37.34	2.96852
37.56	14.0056
37.78	94.9828
38	24.7809
38.22	38.4969
38.44	27.7644
38.66	18.483
38.88	29.2259
39.1	41.077
39.32	7.94778
39.54	34.1047
39.76	8.85178
39.98	58.473
40.2	79.0978
40.42	18.8891
40.64	33.0622
40.86	3.06345
41.08	22.5673
41.3	0.825119
41.52	5.98224
41.74	8.86426
41.96	13.6522
42.18	1.67485
42.4	32.8451
42.62	41.9307
42.84	35.9252
43.06	32.764
43.28	15.3541
43.5	14.8914
43.72	25.6794
43.94	10.3663
44.16	7.56213
44.38	17.2847
44.6	18.658
44.82	13.2033
45.04	22.1257
45.26	33.319
45.48	1.54486
45.7	20.9622
45.92	11.1274
46.14	2.1702
46.36	19.7048
46.58	13.6511
46.8	15.2858
47.02	21.3303
47.24	43.4625
47.46	14.5642
47.68	16.6283
47.9	8.54689
48.12	25.4743
48.34	25.0219
48.56	2.02257
48.78	5.63148
49	32.4384
49.22	33.3766
49.44	57.4871
49.66	140.817
49.88	26.4902
50.1	18.9974
50.32	11.6354
50.54	20.598
50.76	0.505768
50.98	41.9802
51.2	45.0705
51.42	25.3186
51.64	27.3067
51.86	36.4471
52.08	7.7991
52.3	2.44133
52.52	23.1279
52.74	8.41963
52.96	0.92659
53.18	8.44282
53.4	23.3724
53.62	19.7276
53.84	16.1356
54.06	13.5104
54.28	29.0474
54.5	28.3757
54.72	52.1046
54.94	33.5675
55.16	18.1993
55.38	15.6262
55.6	9.73062
55.82	20.0078
56.04	25.9406
56.26	15.7521
56.48	69.3307
56.7	9.7823
56.92	10.151
57.14	33.196
57.36	8.60808
57.58	7.06242
57.8	37.9733
58.02	7.6026
58.24	20.7577
58.46	8.64206
58.68	7.7941
58.9	30.6106
59.12	29.9948
59.34	55.196
59.56	11.8844
59.78	34.602
60	7.90958
60.22	14.9601
60.44	36.2103
60.66	30.2204
60.88	86.7286
61.1	61.5567
61.32	40.2704
61.54	18.0469
61.76	19.8529
61.98	13.8114
62.2	14.5522
62.42	38.8402
62.64	17.4011
62.86	20.352
63.08	16.261
63.3	11.8481
63.52	25.2184
63.74	27.7054
63.96	24.7151
64.18	0.900238
64.4	30.1712
64.62	22.4417
64.84	18.1563
65.06	8.37675
65.28	75.06
65.5	12.3879
65.72	27.3355
65.94	42.3514
66.16	28.2836
66.38	5.38991
66.6	8.42619
66.82	15.738
67.04	50.3191
67.26	5.27191
67.48	23.4541
67.7	13.9258
67.92	1.61577
68.14	33.2538
68.36	21.2287
68.58	16.9397
68.8	42.4359
69.02	30.42
69.24	11.2377
69.46	0.404633
69.68	1.57974
69.9	20.0402
70.12	24.8459
70.34	11.7429
70.56	0.599365
70.78	26.987
71	14.1316
71.22	22.8864
71.44	21.194
71.66	30.7131
71.88	35.8034
72.1	6.45636
72.32	15.1788
72.54	21.1552
72.76	3.18715
72.98	18.6503
73.2	23.2265
73.42	33.1552
73.64	0.166138
73.86	35.9694
74.08	45.676
74.3	1.24986
74.52	45.3733
74.74	24.9433
74.96	23.8146
75.18	24.5257
75.4	36.6616
75.62	30.7508
75.84	31.2367
76.06	44.2978
76.28	37.3061
76.5	12.3641
76.72	6.5757
76.94	30.1311
77.16	27.5048
77.38	20.7229
77.6	18.5746
77.82	13.0728
78.04	6.31576
78.26	48.1346
78.48	26.5944
78.7	1.34486
78.92	20.9553
79.14	1.9499
79.36	20.9213
79.58	21.0531
79.8	28.2179
80.02	38.5151
80.24	22.9308
80.46	8.91415
80.68	32.4269
80.9	24.1158
81.12	16.4966
81.34	39.1878
81.56	0.356781
81.78	14.0239
82	6.88098
82.22	18.2361
82.44	33.1049
82.66	28.1315
82.88	5.56218
83.1	55.2368
83.32	35.2574
83.54	33.8651
83.76	21.895
83.98	28.8357
84.2	23.2037
84.42	8.38466
84.64	41.2086
84.86	24.6102
85.08	2.23554
85.3	23.8145
85.52	8.49899
85.74	8.87411
85.96	21.1527
86.18	16.0496
86.4	59.9032
86.62	50.1643
86.84	3.43533
87.06	0.114243
87.28	31.7362
87.5	15.138
87.72	6.63516
87.94	14.7494
88.16	5.01884
88.38	18.0962
88.6	1.46507
88.82	37.454
89.04	26.2649
89.26	7.65205
89.48	31.7298
89.7	49.7595
89.92	24.1454
