Measurement: Powder, Xray Data XY Processed
Mineral: Quartz
Rruff sample: R050125
Ideal chemistry: SiO_2_
Locality: Linopolis, Minas Gerais, Brazil
Source: Carlos and Paulo Vasconcelos
Description: Pale pink group of single crystals, variety rose quartz
Diffraction sample description: Powder
Measured chemistry: Si_1.00_O_2_
Cell parameters: a: 4.9130(2) b: 4.9130(2) c: 5.4049(2) alpha: 90. beta: 90. gamma: 120. volume: 112.984(6) crystal system: hexagonal
x	intensity
5	0
5.22	13.0914
5.44	13.7066
5.66	14.1834
5.88	25.3273
6.1	12.3386
6.32	13.0006
6.54	8.55018
6.76	6.77376
6.98	6.65629
7.2	8.45269
7.42	7.4566
7.64	11.1325
7.86	12.7101
8.08	0.814096
8.3	12.4948
8.52	1.87432
8.74	5.23117
8.96	5.46796
9.18	1.64701
9.4	9.77788
9.62	9.01085
9.84	3.15776
10.06	6.32551
10.28	3.14496
10.5	1.26649
10.72	3.45039
10.94	2.49356
11.16	5.66898
11.38	12.8013
11.6	9.66431
11.82	0.55689
12.04	2.44105
12.26	4.33918
12.48	5.46222
12.7	8.63571
12.92	8.57541
13.14	5.46698
13.36	4.39044
13.58	7.21235
13.8	1.7697
14.02	2.17863
14.24	9.10297
14.46	2.07795
14.68	2.17214
14.9	10.3368
15.12	2.17883
15.34	1.23055
15.56	1.28258
15.78	1.48127
16	6.66716
16.22	2.53917
16.44	0.236109
16.66	9.11103
16.88	3.37888
17.1	7.34698
17.32	13.1499
17.54	12.1892
17.76	0.834124
17.98	10.1452
18.2	0.977338
18.42	0.056598
18.64	4.17261
18.86	42.1491
19.08	5.78361
19.3	2.51918
19.52	1.83719
19.74	2.20011
19.96	5.31497
20.18	14.8891
20.4	4.57081
20.62	16.2486
20.84	289.91
21.06	28.0349
21.28	6.88262
21.5	2.99888
21.72	9.21918
21.94	2.41467
22.16	3.54617
22.38	2.83195
22.6	3.27651
22.82	0.49098
23.04	6.77729
23.26	5.12116
23.48	0.418531
23.7	2.64411
23.92	5.00868
24.14	13.3089
24.36	6.30851
24.58	0.90214
24.8	4.29458
25.02	4.41913
25.24	7.56329
25.46	8.60711
25.68	7.50324
25.9	18.3727
26.12	8.65173
26.34	15.951
26.56	170.048
26.78	458.034
27	26.2685
27.22	14.5543
27.44	7.14503
27.66	13.7373
27.88	4.93208
28.1	5.73583
28.32	5.68403
28.54	8.45688
28.76	5.38983
28.98	4.00149
29.2	7.51773
29.42	3.78167
29.64	8.05813
29.86	8.35928
30.08	0.962011
30.3	2.76041
30.52	12.9937
30.74	0.047138
30.96	12.3394
31.18	0.255649
31.4	5.4115
31.62	7.17167
31.84	4.24995
32.06	14.2972
32.28	5.36128
32.5	1.88552
32.72	1.81484
32.94	10.276
33.16	13.3531
33.38	1.33638
33.6	2.92054
33.82	2.15999
34.04	7.09952
34.26	9.16194
34.48	5.16634
34.7	4.3907
34.92	11.3008
35.14	19.3301
35.36	8.16334
35.58	13.0586
35.8	0.347591
36.02	1.24378
36.24	12.3383
36.46	22.3154
36.68	156.322
36.9	8.36992
37.12	0.356582
37.34	0.863401
37.56	5.11944
37.78	19.2777
38	7.49643
38.22	5.52921
38.44	1.42138
38.66	2.01584
38.88	4.89281
39.1	7.74272
39.32	7.5543
39.54	56.4269
39.76	8.00493
39.98	4.7202
40.2	10.6271
40.42	90.4287
40.64	13.6848
40.86	2.12384
41.08	6.20312
41.3	3.25468
41.52	3.32366
41.74	8.45139
41.96	8.23112
42.18	0.229938
42.4	13.2271
42.62	140.169
42.84	12.4459
43.06	5.04893
43.28	6.22296
43.5	16.2205
43.72	4.26003
43.94	1.24233
44.16	2.21708
44.38	1.74203
44.6	5.23783
44.82	4.22312
45.04	17.3171
45.26	5.2857
45.48	1.20302
45.7	1.07516
45.92	61.0956
46.14	6.24228
46.36	4.66596
46.58	0.025189
46.8	0.379588
47.02	3.62606
47.24	7.86252
47.46	7.85384
47.68	2.62902
47.9	4.62619
48.12	0.33693
48.34	5.21917
48.56	9.18603
48.78	12.6613
49	7.2424
49.22	9.53604
49.44	5.53188
49.66	5.30945
49.88	7.23672
50.1	42.8834
50.32	205.956
50.54	10.2456
50.76	2.21176
50.98	7.35242
51.2	2.80082
51.42	2.9586
51.64	9.08738
51.86	3.32875
52.08	4.47903
52.3	1.84542
52.52	6.32538
52.74	6.3384
52.96	14.6182
53.18	6.82411
53.4	7.1833
53.62	8.0254
53.84	8.05911
54.06	9.11682
54.28	1.93251
54.5	2.91451
54.72	5.68076
54.94	33.8753
55.16	8.99365
55.38	35.0478
55.6	4.74458
55.82	1.88731
56.04	2.92678
56.26	3.94355
56.48	6.92352
56.7	8.89488
56.92	6.11421
57.14	4.16839
57.36	11.012
57.58	5.71734
57.8	6.78046
58.02	3.54512
58.24	0.223723
58.46	2.19753
58.68	3.99066
58.9	3.79691
59.12	3.60852
59.34	4.20411
59.56	1.07386
59.78	15.8328
60	765.878
60.22	45.7917
60.44	15.7836
60.66	8.66274
60.88	0.025651
61.1	11.3082
61.32	0.496562
61.54	5.82515
61.76	2.06006
61.98	5.26246
62.2	5.83843
62.42	3.77112
62.64	4.64773
62.86	1.80798
63.08	3.7245
63.3	4.50839
63.52	7.60311
63.74	10.6414
63.96	6.51211
64.18	7.44887
64.4	9.34092
64.62	7.88455
64.84	2.8274
65.06	2.87753
65.28	2.03123
65.5	12.2656
65.72	4.45106
65.94	12.2487
66.16	6.27839
66.38	4.27812
66.6	4.17492
66.82	4.95779
67.04	7.77642
67.26	4.61283
67.48	2.20008
67.7	24.0921
67.92	36.7336
68.14	86.6401
68.36	153.704
68.58	15.5779
68.8	13.684
69.02	0.361078
69.24	2.37303
69.46	0.130393
69.68	2.53494
69.9	7.86147
70.12	3.23575
70.34	0.485711
70.56	6.55601
70.78	1.90535
71	1.99191
71.22	0.069784
71.44	2.60532
71.66	3.73653
71.88	3.52104
72.1	0.34725
72.32	6.28122
72.54	1.99445
72.76	4.04904
72.98	0.940805
73.2	3.98767
73.42	7.24084
73.64	9.43645
73.86	4.54867
74.08	0.489336
74.3	1.22439
74.52	0.848383
74.74	3.88738
74.96	0.009032
75.18	2.03647
75.4	4.03663
75.62	14.7761
75.84	15.5593
76.06	1.64396
76.28	15.3785
76.5	5.25586
76.72	0.090929
76.94	9.84829
77.16	3.83402
77.38	2.97716
77.6	15.8065
77.82	2.63002
78.04	0.208438
78.26	0.87439
78.48	2.8597
78.7	3.66104
78.92	5.6155
79.14	3.56073
79.36	6.66985
79.58	2.67657
79.8	1.45795
80.02	19.4693
80.24	13.4228
80.46	5.25554
80.68	0.136106
80.9	0.198184
81.12	9.53419
81.34	7.83891
81.56	24.2029
81.78	35.3323
82	11.7804
82.22	2.87714
82.44	1.81649
82.66	8.42689
82.88	11.5526
83.1	0.351209
83.32	3.69477
83.54	2.52568
83.76	8.52942
83.98	6.38475
84.2	9.34558
84.42	10.0841
84.64	1.09415
84.86	4.06642
85.08	6.24834
85.3	4.3884
85.52	2.60361
85.74	4.82927
85.96	6.16533
86.18	0.221626
86.4	1.22024
86.62	8.34608
86.84	6.43644
87.06	8.46771
87.28	8.45411
87.5	8.4232
87.72	2.40504
87.94	7.33153
88.16	1.23184
88.38	3.11473
88.6	7.22931
88.82	3.5486
89.04	4.55716
89.26	4.87645
89.48	7.03878
89.7	4.7533
89.92	9.32261
