Measurement: Powder, Xray Data XY Processed
Mineral: Rammelsbergite
Rruff sample: R061021
Ideal chemistry: NiAs_2_
Locality: Schneckenstei, Vogtland, Saxony, Germany
Source: Michael Scott
Description: Tin-white metallic massive
Diffraction sample description: Powder
Measured chemistry: (Ni_0.96_Co_0.03_Fe_0.01_)_Î£=1_As_2.00_ ; trace amounts of S
Cell parameters: a: 4.7761(9) b: 5.7931(5) c: 3.5209(9) alpha: 90 beta: 90 gamma: 90 volume: 97.42(2) crystal system: orthorhombic
x	intensity
5	0
5.22	14.3412
5.44	14.1276
5.66	25.5098
5.88	8.40171
6.1	2.29222
6.32	6.67795
6.54	8.2021
6.76	8.92408
6.98	5.51207
7.2	19.224
7.42	13.3171
7.64	13.2415
7.86	15.7332
8.08	36.8517
8.3	17.6087
8.52	26.2636
8.74	5.19127
8.96	18.2598
9.18	11.9185
9.4	5.90074
9.62	15.0865
9.84	14.1186
10.06	30.5907
10.28	2.08661
10.5	0.286957
10.72	16.5876
10.94	22.2828
11.16	27.2755
11.38	25.3027
11.6	17.8096
11.82	28.6408
12.04	13.5679
12.26	19.5635
12.48	0.519615
12.7	3.77821
12.92	8.45888
13.14	28.0308
13.36	24.1648
13.58	21.9383
13.8	27.1989
14.02	12.2618
14.24	22.0676
14.46	6.0424
14.68	0.911522
14.9	12.9862
15.12	29.6143
15.34	22.0929
15.56	22.0196
15.78	35.8654
16	32.2429
16.22	20.0656
16.44	4.76591
16.66	13.8828
16.88	23.5323
17.1	29.9627
17.32	22.5461
17.54	24.3554
17.76	37.0548
17.98	20.7851
18.2	27.715
18.42	21.3799
18.64	22.7182
18.86	11.4387
19.08	16.3203
19.3	21.6985
19.52	13.4562
19.74	6.27253
19.96	19.9896
20.18	18.3199
20.4	0.959358
20.62	10.7026
20.84	33.3102
21.06	23.4887
21.28	4.7776
21.5	11.4552
21.72	23.0384
21.94	31.9543
22.16	10.4688
22.38	20.1876
22.6	23.3153
22.82	9.09824
23.04	21.8144
23.26	23.4953
23.48	13.0751
23.7	26.329
23.92	18.832
24.14	66.2144
24.36	12.0398
24.58	22.4823
24.8	17.5945
25.02	15.644
25.24	15.8923
25.46	11.4682
25.68	21.0232
25.9	13.5127
26.12	13.3541
26.34	32.5854
26.56	12.0528
26.78	36.9667
27	14.27
27.22	43.5437
27.44	17.6955
27.66	9.43575
27.88	23.5741
28.1	0.348595
28.32	9.70303
28.54	19.7143
28.76	17.1138
28.98	12.2922
29.2	3.43044
29.42	30.8584
29.64	54.7323
29.86	13.2707
30.08	28.749
30.3	23.5773
30.52	16.1614
30.74	3.66675
30.96	43.5344
31.18	26.8861
31.4	89.3901
31.62	359.184
31.84	114.216
32.06	46.095
32.28	6.89475
32.5	33.4345
32.72	3.9537
32.94	1.56174
33.16	9.7617
33.38	24.6438
33.6	117.855
33.82	31.719
34.04	4.36414
34.26	4.74071
34.48	9.24639
34.7	34.0187
34.92	33.1964
35.14	395.386
35.36	428.229
35.58	112.609
35.8	14.2217
36.02	97.9091
36.24	599.826
36.46	141.713
36.68	1.19386
36.9	17.3336
37.12	3.79585
37.34	18.4359
37.56	29.9162
37.78	38.8217
38	13.4614
38.22	18.2653
38.44	7.03715
38.66	14.9609
38.88	32.8114
39.1	10.3238
39.32	17.4545
39.54	18.0432
39.76	14.3217
39.98	8.006
40.2	8.10065
40.42	26.7308
40.64	43.9472
40.86	54.7415
41.08	18.2619
41.3	18.9919
41.52	18.9992
41.74	18.0454
41.96	20.2202
42.18	8.86932
42.4	46.6107
42.62	14.8924
42.84	9.13435
43.06	20.1552
43.28	18.0941
43.5	26.797
43.72	28.1094
43.94	8.85771
44.16	0.326286
44.38	12.1259
44.6	62.8746
44.82	83.0005
45.04	27.6569
45.26	2.38642
45.48	2.38807
45.7	22.0048
45.92	19.1233
46.14	89.2288
46.36	31.7175
46.58	17.2576
46.8	28.4554
47.02	22.4302
47.24	18.4478
47.46	0.709694
47.68	8.72506
47.9	3.84548
48.12	16.4153
48.34	24.4811
48.56	204.645
48.78	345.082
49	71.3255
49.22	44.1969
49.44	12.8834
49.66	9.82304
49.88	4.89979
50.1	33.8961
50.32	62.1257
50.54	12.0876
50.76	28.2712
50.98	94.592
51.2	6.76011
51.42	9.62217
51.64	76.8442
51.86	58.6971
52.08	30.345
52.3	9.55499
52.52	13.6007
52.74	9.20045
52.96	32.2936
53.18	2.3495
53.4	21.2637
53.62	0.882462
53.84	44.8497
54.06	170.047
54.28	154.318
54.5	68.2599
54.72	6.23628
54.94	0.546844
55.16	17.509
55.38	27.4603
55.6	18.1249
55.82	40.2831
56.04	34.8026
56.26	91.5469
56.48	71.3157
56.7	3.92627
56.92	17.7804
57.14	23.7629
57.36	8.76002
57.58	64.431
57.8	135.788
58.02	36.7977
58.24	21.3767
58.46	47.5933
58.68	13.7754
58.9	3.03577
59.12	4.95573
59.34	32.7598
59.56	5.40519
59.78	46.4985
60	29.7137
60.22	63.3168
60.44	74.4086
60.66	3.01498
60.88	27.4336
61.1	8.78442
61.32	1.88953
61.54	12.5238
61.76	19.2194
61.98	27.2297
62.2	29.2276
62.42	23.6625
62.64	43.2184
62.86	28.0857
63.08	23.6537
63.3	24.8987
63.52	13.4741
63.74	18.8956
63.96	18.2259
64.18	55.4802
64.4	38.1541
64.62	32.6785
64.84	73.967
65.06	65.3837
65.28	30.1169
65.5	13.4982
65.72	10.2236
65.94	21.3886
66.16	4.706
66.38	39.3796
66.6	21.701
66.82	7.19334
67.04	11.5228
67.26	4.61037
67.48	12.2546
67.7	20.157
67.92	15.7132
68.14	1.60074
68.36	27.3381
68.58	6.59331
68.8	21.3367
69.02	40.4421
69.24	20.3301
69.46	1.06976
69.68	16.2486
69.9	16.1382
70.12	17.9846
70.34	3.27219
70.56	21.9295
70.78	10.042
71	34.2342
71.22	21.5895
71.44	29.3737
71.66	22.4105
71.88	14.423
72.1	35.2638
72.32	24.964
72.54	37.5711
72.76	25.2292
72.98	37.2689
73.2	22.5225
73.42	15.1255
73.64	10.3253
73.86	33.9556
74.08	17.0799
74.3	41.3868
74.52	25.1388
74.74	37.9401
74.96	36.6413
75.18	10.6324
75.4	2.50991
75.62	14.9437
75.84	20.5622
76.06	10.0911
76.28	7.904
76.5	16.4649
76.72	25.3936
76.94	60.0802
77.16	26.4125
77.38	17.7589
77.6	20.9046
77.82	12.9427
78.04	2.95999
78.26	15.8499
78.48	0.704567
78.7	18.7663
78.92	11.5726
79.14	30.2867
79.36	6.76215
79.58	11.7084
79.8	4.60623
80.02	18.3093
80.24	10.1253
80.46	15.8396
80.68	23.756
80.9	25.313
81.12	7.768
81.34	19.8216
81.56	17.1193
81.78	3.24577
82	6.84723
82.22	0.933617
82.44	15.6551
82.66	27.9237
82.88	7.21114
83.1	13.8696
83.32	43.818
83.54	41.1887
83.76	64.8793
83.98	27.0031
84.2	9.57378
84.42	29.7974
84.64	14.848
84.86	22.4472
85.08	6.37291
85.3	20.0507
85.52	4.17767
85.74	8.75806
85.96	14.3649
86.18	9.60378
86.4	28.2539
86.62	38.4842
86.84	14.7199
87.06	38.388
87.28	28.0574
87.5	16.3606
87.72	37.4327
87.94	1.5486
88.16	2.63508
88.38	29.7958
88.6	14.7167
88.82	26.8835
89.04	24.419
89.26	17.2313
89.48	38.2094
89.7	28.2821
89.92	19.6221
