Measurement: Powder, Xray Data XY Processed
Mineral: Ramsbeckite
Rruff sample: R050295
Ideal chemistry: Cu^2+^_15_(S^6+^O_4_)_4_(OH)_22_6H_2_O
Locality: 79 mine, 6th level, 31 stope, Hayden, Gila County, Arizona, USA
Source: George Godas, John Callahan
Description: Greenish-blue tabular
Diffraction sample description: Single crystal, powder profile is calculated
Measured chemistry: (Cu_8.33_Zn_6.67_)_Σ=15_(S_1.00_O_4_)_4_(OH)_22_·6H_2_O ; = rim, gray phase. The core, light phase is sphalerite.
Cell parameters: a: 16.1309(7) b: 15.5910(6) c: 7.0808(5) alpha: 90 beta: 90.259(8) gamma: 90 volume: 1780.8(0) crystal system: monoclinic
x	intensity
5	0
5.22	0
5.44	0
5.66	0
5.88	0
6.1	0
6.32	0
6.54	0
6.76	0
6.98	0
7.2	0
7.42	0
7.64	0
7.86	6.847
8.08	0
8.3	0
8.52	0
8.74	0
8.96	0
9.18	0
9.4	0
9.62	0
9.84	0
10.06	0
10.28	0
10.5	0
10.72	0
10.94	0.399
11.16	0
11.38	12.197
11.6	0
11.82	0
12.04	0
12.26	0.012
12.48	0.898
12.7	1.769
12.92	0
13.14	0
13.36	0
13.58	0
13.8	3.895
14.02	0
14.24	0
14.46	0
14.68	0.045
14.9	0.69
15.12	0
15.34	0
15.56	0
15.78	44.016
16	0
16.22	0
16.44	0
16.66	8.547
16.88	0.018
17.1	0
17.32	0.008
17.54	13.878
17.76	51.163
17.98	5.561
18.2	0
18.42	0
18.64	0
18.86	0
19.08	0
19.3	0
19.52	0
19.74	0
19.96	0.045
20.18	8.791
20.4	0.584
20.62	0
20.84	0
21.06	0
21.28	1.709
21.5	2.543
21.72	0.001
21.94	2.909
22.16	0.074
22.38	0
22.6	0
22.82	4.238
23.04	0
23.26	0
23.48	1.31
23.7	0.345
23.92	3.565
24.14	0
24.36	0
24.58	0
24.8	0.028
25.02	0.005
25.24	1.14
25.46	4.411
25.68	0.004
25.9	0.145
26.12	0.526
26.34	2.134
26.56	0.016
26.78	0.137
27	1.528
27.22	0
27.44	6.984
27.66	6.254
27.88	0.292
28.1	1.36
28.32	1.789
28.54	0.006
28.76	0
28.98	0
29.2	2.121
29.42	0
29.64	0
29.86	1.32
30.08	0.11
30.3	0
30.52	0.01
30.74	0.149
30.96	0.584
31.18	0.351
31.4	0.003
31.62	0
31.84	6.45
32.06	0.01
32.28	0.02
32.5	0.737
32.72	2.953
32.94	0
33.16	1.816
33.38	0.148
33.6	0.012
33.82	3.807
34.04	0.446
34.26	2.06
34.48	2.321
34.7	2.393
34.92	2.524
35.14	9.205
35.36	0.02
35.58	14.815
35.8	0.457
36.02	1.19
36.24	5.277
36.46	0.225
36.68	0.001
36.9	2.937
37.12	0.001
37.34	0.806
37.56	1.087
37.78	0.213
38	0.831
38.22	3.913
38.44	5.233
38.66	1.833
38.88	1.103
39.1	0.129
39.32	0.001
39.54	0.085
39.76	0.742
39.98	0.399
40.2	1.215
40.42	1.634
40.64	0.08
40.86	0.113
41.08	1.406
41.3	1.373
41.52	5.074
41.74	3.851
41.96	0.186
42.18	10.253
42.4	2.461
42.62	1.113
42.84	2.951
43.06	0.556
43.28	4.627
43.5	1.637
43.72	0.734
43.94	0.675
44.16	1.091
44.38	1.649
44.6	2.306
44.82	1.408
45.04	0.058
45.26	0.423
45.48	1.069
45.7	0.229
45.92	1.485
46.14	0.006
46.36	0.838
46.58	2.156
46.8	1.534
47.02	0.91
47.24	1.61
47.46	0.04
47.68	0.006
47.9	1.16
48.12	0.498
48.34	0.775
48.56	0.857
48.78	2.353
49	2.462
49.22	0.208
49.44	0.125
49.66	0.383
49.88	1.224
50.1	0.149
50.32	0.245
50.54	1.374
50.76	0.172
50.98	1.391
51.2	0.551
51.42	3.346
51.64	7.41
51.86	1.311
52.08	4.627
52.3	2.93
52.52	0.331
52.74	0.982
52.96	0.337
53.18	0.788
53.4	1.234
53.62	1.405
53.84	0.877
54.06	0.859
54.28	0.836
54.5	0.437
54.72	1.099
54.94	1.452
55.16	1.245
55.38	0.323
55.6	0.261
55.82	2.794
56.04	0.836
56.26	0.149
56.48	2.968
56.7	1.514
56.92	0.583
57.14	1.012
57.36	0.95
57.58	0.265
57.8	0.662
58.02	0.792
58.24	0.318
58.46	0.435
58.68	0.547
58.9	0.789
59.12	0.327
59.34	1.063
59.56	1.65
59.78	0.496
60	1.937
60.22	0.412
60.44	1.056
60.66	1.246
60.88	0.31
61.1	0.525
61.32	0.088
61.54	0.29
61.76	0.439
61.98	0.541
62.2	0.43
62.42	0.302
62.64	2.544
62.86	1.216
63.08	0.446
63.3	1.029
63.52	0.572
63.74	0.41
63.96	0.915
64.18	0.322
64.4	0.416
64.62	0.662
64.84	0.349
65.06	0.232
65.28	0.229
65.5	0.344
65.72	0.177
65.94	0.22
66.16	0.513
66.38	1.196
66.6	0.617
66.82	0.042
67.04	0.308
67.26	0.526
67.48	0.34
67.7	0.115
67.92	0.613
68.14	0.305
68.36	0.207
68.58	0.201
68.8	0.352
69.02	0.24
69.24	0.091
69.46	0.261
69.68	0.709
69.9	0.429
70.12	0.139
70.34	0.21
70.56	0.265
70.78	0.654
71	0.874
71.22	0.932
71.44	0.819
71.66	0.369
71.88	0.352
72.1	0.489
72.32	0.757
72.54	0.443
72.76	0.164
72.98	0.402
73.2	0.366
73.42	0.119
73.64	0.644
73.86	0.799
74.08	0.312
74.3	0.124
74.52	0.186
74.74	0.128
74.96	0.171
75.18	0.435
75.4	0.848
75.62	0.827
75.84	0.294
76.06	0.14
76.28	0.363
76.5	0.496
76.72	0.314
76.94	0.462
77.16	0.619
77.38	0.51
77.6	0.353
77.82	0.329
78.04	0.274
78.26	0.271
78.48	0.29
78.7	0.195
78.92	0.317
79.14	0.158
79.36	0.414
79.58	0.479
79.8	0.164
80.02	0.05
80.24	0.437
80.46	0.367
80.68	0.68
80.9	0.497
81.12	0.139
81.34	0.596
81.56	0.508
81.78	0.398
82	0.213
82.22	0.361
82.44	0.279
82.66	0.483
82.88	0.613
83.1	0.778
83.32	1.272
83.54	1.082
83.76	0.4
83.98	0.245
84.2	0.181
84.42	0.152
84.64	0.609
84.86	0.441
85.08	0.146
85.3	0.181
85.52	0.446
85.74	0.364
85.96	0.248
86.18	0.617
86.4	0.293
86.62	0.266
86.84	0.329
87.06	0.346
87.28	0.203
87.5	0.199
87.72	0.264
87.94	0.153
88.16	0.373
88.38	0.112
88.6	0.421
88.82	0.487
89.04	0.227
89.26	0.239
89.48	0.584
89.7	0.588
89.92	0.45
