Measurement: Powder, Xray Data XY Processed
Mineral: Rasvumite
Rruff sample: R060491
Ideal chemistry: KFe^2+^Fe^3+^S^2-^_3_
Locality: Coyote Peak, Humboldt County, California, USA
Source: Michael Scott
Description: Parallel aggregates of brownish-red fibers, associated with phlogopite, andradite, augite, pyrrhotite, magnetite, sulphur, and apatite. The sample profile under the red laser matches sulphur
Diffraction sample description: Powder, using Mo radiation
Cell parameters: a: 9.08(3) b: 11.08(1) c: 5.449(2) alpha: 90 beta: 90 gamma: 90 volume: 540(2) crystal system: orthorhombic
x	intensity
5.24	0
5.32	1.78284
5.4	12.8405
5.48	110.676
5.56	339.842
5.64	731.981
5.72	1004.86
5.8	1068.81
5.88	1061.28
5.96	1007.92
6.04	621.317
6.12	292.748
6.2	158.624
6.28	112.692
6.36	86.4453
6.44	85.6014
6.52	97.2369
6.6	116.842
6.68	168.283
6.76	190.945
6.84	214.631
6.92	192.665
7	218.37
7.08	360.294
7.16	674.808
7.24	1144.7
7.32	1605.7
7.4	1712
7.48	1374.42
7.56	869.144
7.64	388.135
7.72	138.527
7.8	40.3911
7.88	13.4093
7.96	19.2859
8.04	7.24854
8.12	3.63001
8.2	8.02551
8.28	16.0591
8.36	18.9911
8.44	11.4962
8.52	8.35998
8.6	1.83691
8.68	34.7018
8.76	31.8411
8.84	49.7338
8.92	41.5184
9	54.9535
9.08	63.8806
9.16	84.9196
9.24	85.2938
9.32	92.455
9.4	71.2502
9.48	55.3799
9.56	67.9016
9.64	78.5845
9.72	87.0176
9.8	100.04
9.88	85.1407
9.96	51.4492
10.04	18.3778
10.12	13.1406
10.2	5.53284
10.28	31.0919
10.36	48.8123
10.44	71.7598
10.52	76.0703
10.6	69.9899
10.68	56.4371
10.76	35.1528
10.84	11.0587
10.92	2.80261
11	0.765503
11.08	13.3711
11.16	7.37317
11.24	15.3648
11.32	55.5635
11.4	119.534
11.48	234.926
11.56	393.779
11.64	535.055
11.72	636.115
11.8	775.279
11.88	957.467
11.96	1039.76
12.04	849.973
12.12	565.018
12.2	356.63
12.28	228.075
12.36	165.092
12.44	152.259
12.52	177.403
12.6	208.85
12.68	285.647
12.76	327.132
12.84	383.76
12.92	436.344
13	433.645
13.08	358.43
13.16	264.515
13.24	198.956
13.32	202.812
13.4	229.962
13.48	307.941
13.56	555.415
13.64	1025.92
13.72	1730.53
13.8	2355.97
13.88	2514.17
13.96	2171.52
14.04	1610.9
14.12	1088.9
14.2	694.442
14.28	443.623
14.36	260.451
14.44	136.19
14.52	76.5043
14.6	42.538
14.68	44.7456
14.76	54.4016
14.84	66.3701
14.92	81.1954
15	85.8512
15.08	68.9044
15.16	40.9127
15.24	0.535034
15.32	19.5837
15.4	13.8718
15.48	7.67078
15.56	4.16736
15.64	25.1234
15.72	81.6746
15.8	213.948
15.88	405.925
15.96	609.208
16.04	728.426
16.12	666.476
16.2	442.204
16.28	239.94
16.36	169.532
16.44	279.463
16.52	596.7
16.6	902.973
16.68	941.45
16.76	724.918
16.84	427.612
16.92	198.721
17	87.1154
17.08	43.9529
17.16	40.5797
17.24	76.2065
17.32	183.325
17.4	350.877
17.48	489.571
17.56	473.731
17.64	296.495
17.72	120.896
17.8	33.1296
17.88	10.2316
17.96	1.36902
18.04	3.90729
18.12	0.5802
18.2	8.62201
18.28	4.35053
18.36	1.60998
18.44	0.30957
18.52	7.92389
18.6	26.3756
18.68	30.1022
18.76	18.3743
18.84	15.8878
18.92	24.2987
19	61.7811
19.08	123.237
19.16	147.468
19.24	153.931
19.32	176.238
19.4	212.259
19.48	260.132
19.56	257.822
19.64	180.073
19.72	94.8264
19.8	39.4115
19.88	14.1735
19.96	15.7986
20.04	10.7599
20.12	15.4156
20.2	45.6653
20.28	149.639
20.36	361.593
20.44	692.656
20.52	1000.53
20.6	1105.26
20.68	895.088
20.76	577.865
20.84	410.634
20.92	563.096
21	892.885
21.08	1114.66
21.16	1086.28
21.24	807.614
21.32	471.178
21.4	224.408
21.48	89.2763
21.56	26.1044
21.64	1.92603
21.72	6.94989
21.8	13.9065
21.88	3.0304
21.96	5.68903
22.04	39.3828
22.12	92.0713
22.2	126.561
22.28	103.221
22.36	59.2476
22.44	13.5111
22.52	3.73291
22.6	1.5741
22.68	26.2231
22.76	122.738
22.84	358.63
22.92	675.875
23	891.399
23.08	896.19
23.16	737.49
23.24	612.494
23.32	670.501
23.4	835.71
23.48	931.031
23.56	864.687
23.64	668.907
23.72	403.248
23.8	211.71
23.88	96.8331
23.96	42.3382
24.04	55.07
24.12	85.4979
24.2	134.145
24.28	191.91
24.36	197.352
24.44	164.196
24.52	146.544
24.6	149.708
24.68	167.156
24.76	164.883
24.84	156.129
24.92	148.052
25	129.816
25.08	117.483
25.16	142.677
25.24	180.989
25.32	231.878
25.4	301.37
25.48	315.031
25.56	272.739
25.64	201.856
25.72	110.584
25.8	14.6286
25.88	4.52228
25.96	15.7324
26.04	2.93262
26.12	11.8754
26.2	14.7506
26.28	38.4169
26.36	56.7251
26.44	59.6688
26.52	28.042
26.6	11.4309
26.68	25.4908
26.76	22.978
26.84	45.9376
26.92	61.415
27	71.069
27.08	82.9822
27.16	90.1512
27.24	73.0366
27.32	65.6474
27.4	55.7568
27.48	63.8636
27.56	46.0502
27.64	38.1161
27.72	20.7274
27.8	7.76099
27.88	7.50116
27.96	4.81781
28.04	11.2624
28.12	34.4547
28.2	49.3591
28.28	55.0867
28.36	50.1089
28.44	40.0237
28.52	38.0535
28.6	13.5443
28.68	16.6682
28.76	31.8434
28.84	18.1607
28.92	10.5666
29	0.325867
29.08	4.07611
29.16	3.25873
29.24	20.3375
29.32	41.9444
29.4	53.8847
29.48	60.9188
29.56	44.2723
29.64	19.9981
29.72	20.041
29.8	17.524
29.88	15.9685
29.96	34.8914
30.04	59.5001
30.12	93.4777
30.2	154.79
30.28	171.75
30.36	159.341
30.44	122.516
30.52	80.8102
30.6	28.3792
30.68	23.7401
30.76	21.7506
30.84	30.0812
30.92	28.988
31	43.7345
31.08	61.426
31.16	78.8469
31.24	65.779
31.32	59.5318
31.4	28.5631
31.48	25.1591
31.56	18.2259
31.64	2.34546
31.72	5.08252
31.8	8.22339
31.88	2.39661
31.96	39.499
32.04	87.2697
32.12	97.9117
32.2	81.917
32.28	72.8891
32.36	62.6785
32.44	84.1187
32.52	113.653
32.6	133.857
32.68	135.249
32.76	104.381
32.84	68.2198
32.92	46.2163
33	55.1471
33.08	73.3334
33.16	84.6168
33.24	94.7913
33.32	93.8568
33.4	79.6346
33.48	71.1086
33.56	47.6915
33.64	49.8459
33.72	41.4324
33.8	44.6935
33.88	35.4795
33.96	40.6526
34.04	45.5823
34.12	35.1348
34.2	37.5458
34.28	15.273
34.36	14.6813
34.44	1.15326
34.52	5.35754
34.6	16.6821
34.68	30.4983
34.76	3.19763
34.84	0.835815
