Measurement: Powder, Xray Data XY Processed
Mineral: Reedmergnerite
Rruff sample: R060096
Ideal chemistry: NaBSi_3_O_8_
Locality: Dara-i-Pioz, Tadjikistan
Source: University of Arizona Mineral Museum
Description: Colorless fragment
Diffraction sample description: Powder
Measured chemistry: Na_1.00_B_1.00_Si_3.00_O_8_
Cell parameters: a: 7.8437(5) b: 12.377(1) c: 6.8083(5) alpha: 93.284(9) beta: 116.365(9) gamma: 92.043(8) volume: 589.85(7) crystal system: triclinic
x	intensity
5	0
5.22	15.753
5.44	8.699
5.66	6.061
5.88	7.758
6.1	19.67
6.32	19.982
6.54	3.966
6.76	6.915
6.98	13.138
7.2	6.555
7.42	5.074
7.64	8.149
7.86	2.371
8.08	10.398
8.3	7.308
8.52	1.108
8.74	3.458
8.96	3.886
9.18	0.571
9.4	8.827
9.62	3.6
9.84	8.77
10.06	5.873
10.28	0.96
10.5	7.204
10.72	6.372
10.94	3.618
11.16	0.793
11.38	4.968
11.6	3.899
11.82	0.025
12.04	1.491
12.26	2.597
12.48	3.671
12.7	5.732
12.92	4.723
13.14	3.511
13.36	0.736
13.58	6.194
13.8	5.077
14.02	8.063
14.24	3.046
14.46	26.565
14.68	15.809
14.9	1.748
15.12	2.639
15.34	1.714
15.56	0.117
15.78	8.967
16	73.179
16.22	10.231
16.44	11.447
16.66	1.406
16.88	8.708
17.1	5.436
17.32	2.513
17.54	5.587
17.76	9.618
17.98	4.455
18.2	0.57
18.42	2.709
18.64	4.706
18.86	5.813
19.08	6.717
19.3	3.627
19.52	1.426
19.74	5.47
19.96	0.627
20.18	1.261
20.4	11.344
20.62	3.029
20.84	7.966
21.06	6.015
21.28	6.692
21.5	5.446
21.72	6.127
21.94	6.803
22.16	7.416
22.38	6.978
22.6	4.753
22.82	23.04
23.04	171.94
23.26	13.105
23.48	5.194
23.7	9.56
23.92	8.013
24.14	9.803
24.36	60.361
24.58	5.03
24.8	9.323
25.02	181.235
25.24	5.443
25.46	4.426
25.68	6.423
25.9	42.484
26.12	1.135
26.34	5.794
26.56	11.507
26.78	8.561
27	0.831
27.22	6.677
27.44	11.167
27.66	180.465
27.88	7.611
28.1	6.163
28.32	13.59
28.54	57.236
28.76	11.839
28.98	86.356
29.2	36.143
29.42	546.666
29.64	22.841
29.86	6.971
30.08	15.697
30.3	40.107
30.52	34.608
30.74	0.199
30.96	1.801
31.18	4.116
31.4	27.421
31.62	31.145
31.84	19.542
32.06	4.155
32.28	23.676
32.5	3.701
32.72	2.14
32.94	9.464
33.16	5.347
33.38	36.688
33.6	18.114
33.82	0.977
34.04	9.297
34.26	9.627
34.48	0.386
34.7	0.926
34.92	6.428
35.14	9.978
35.36	14.154
35.58	6.455
35.8	8.295
36.02	3.05
36.24	5.733
36.46	8.247
36.68	14.961
36.9	27.978
37.12	7.657
37.34	25.702
37.56	18.291
37.78	59.312
38	7.38
38.22	9.574
38.44	0.21
38.66	4.24
38.88	2.423
39.1	19.485
39.32	4.303
39.54	2.111
39.76	9.674
39.98	7.696
40.2	16.713
40.42	7.655
40.64	36.439
40.86	3.829
41.08	6.9
41.3	1.844
41.52	7.185
41.74	10.229
41.96	12.542
42.18	1.875
42.4	0.137
42.62	7.887
42.84	3.869
43.06	1.123
43.28	4.843
43.5	3.033
43.72	4.906
43.94	25.55
44.16	16.592
44.38	0.354
44.6	9.187
44.82	5.032
45.04	12.495
45.26	15.026
45.48	14.217
45.7	16.211
45.92	5.468
46.14	0.967
46.36	3.122
46.58	1.26
46.8	11.249
47.02	0.719
47.24	10.025
47.46	3.466
47.68	5.196
47.9	22.049
48.12	1.885
48.34	0.065
48.56	6.902
48.78	28.965
49	9.937
49.22	12.313
49.44	4.404
49.66	2.9
49.88	21.485
50.1	8.656
50.32	7.737
50.54	1.739
50.76	2.294
50.98	8.109
51.2	5.931
51.42	8.834
51.64	13.411
51.86	7.176
52.08	16.085
52.3	0.732
52.52	5.422
52.74	1.192
52.96	0.037
53.18	13.897
53.4	8.739
53.62	37.576
53.84	15.56
54.06	23.87
54.28	10.52
54.5	4.993
54.72	20.002
54.94	7.606
55.16	8.901
55.38	8.933
55.6	10.985
55.82	5.119
56.04	9.289
56.26	1.288
56.48	5.065
56.7	11.282
56.92	9.942
57.14	22.216
57.36	3.995
57.58	14.916
57.8	17.088
58.02	9.246
58.24	1.33
58.46	7.509
58.68	5.714
58.9	6.797
59.12	27.758
59.34	8.469
59.56	6.309
59.78	1.368
60	3.683
60.22	4.8
60.44	0.853
60.66	3.912
60.88	14.949
61.1	3.059
61.32	4.143
61.54	1.209
61.76	7.116
61.98	0.001
62.2	1.57
62.42	7.418
62.64	7.438
62.86	8.696
63.08	4.748
63.3	1.498
63.52	6.452
63.74	5.394
63.96	2.697
64.18	8.856
64.4	17.682
64.62	6.12
64.84	5.004
65.06	5.031
65.28	10.84
65.5	3.986
65.72	12.347
65.94	8.821
66.16	9.716
66.38	1.705
66.6	7.585
66.82	6.68
67.04	6.684
67.26	3.613
67.48	13.535
67.7	14.47
67.92	6.507
68.14	15.312
68.36	9.958
68.58	12.742
68.8	10.853
69.02	8.788
69.24	0.651
69.46	0.976
69.68	5.895
69.9	9.818
70.12	11.71
70.34	8.447
70.56	1.342
70.78	5.131
71	14.265
71.22	1.391
71.44	4.312
71.66	7.376
71.88	3.023
72.1	9.974
72.32	5.86
72.54	5.721
72.76	2.635
72.98	12.26
73.2	5.147
73.42	15.958
73.64	11.844
73.86	10.99
74.08	9.967
74.3	11.41
74.52	9.764
74.74	5.328
74.96	7.674
75.18	14.927
75.4	10.356
75.62	8.84
75.84	2.634
76.06	6.499
76.28	2.648
76.5	6.99
76.72	9.058
76.94	8.05
77.16	9.84
77.38	7.124
77.6	12.127
77.82	5.026
78.04	6.794
78.26	1.66
78.48	5.807
78.7	13.726
78.92	9.186
79.14	6.382
79.36	10.25
79.58	6.178
79.8	0.753
80.02	4.641
80.24	4.505
80.46	7.352
80.68	7.872
80.9	4.688
81.12	8.822
81.34	7.877
81.56	0.674
81.78	1.7
82	2.782
82.22	1.901
82.44	0.247
82.66	7.571
82.88	5.719
83.1	13.799
83.32	7.085
83.54	4.985
83.76	1.093
83.98	3.278
84.2	9.323
84.42	8.469
84.64	1.422
84.86	6.051
85.08	2.972
85.3	3.91
85.52	3.738
85.74	2.418
85.96	5.227
86.18	1.186
86.4	6.817
86.62	5.662
86.84	4.488
87.06	0.509
87.28	5.776
87.5	1.623
87.72	1.733
87.94	8.941
88.16	5.382
88.38	5.655
88.6	1.622
88.82	8.858
89.04	1.256
89.26	1.698
89.48	5.841
89.7	6.605
89.92	10.986
