Measurement: Powder, Xray Data XY Processed
Mineral: Renierite
Rruff sample: R050433
Ideal chemistry: (Cu^1+^,Cu^2+^Zn^2+^)_11_(Fe^2+^,Fe^3+^)_4_(Ge^4+^,As^5+^)_2_S^2-^_16_
Locality: Tsumeb mine, Tsumeb, Otavi District, Oshikoto, Namibia
Source: University of Arizona Mineral Museum
Description: Bronze metallic massive
Diffraction sample description: Powder
Measured chemistry: (Cu_10.51_Zn_0.49_)_Σ=11_Fe_4.00_(Ge_1.67_As_0.33_)_Σ=2_S_16_
Cell parameters: a: 10.6141(7) b: 10.6141(7) c: 10.539(2) alpha: 90. beta: 90. gamma: 90. volume: 1187.3(2) crystal system: tetragonal
x	intensity
5	0
5.22	14.359
5.44	11.631
5.66	5.649
5.88	19.425
6.1	17.846
6.32	10.874
6.54	15.313
6.76	13.725
6.98	17.266
7.2	15.147
7.42	18.305
7.64	17.355
7.86	4.092
8.08	4.292
8.3	10.142
8.52	2.312
8.74	2.788
8.96	14.887
9.18	6.36
9.4	5.506
9.62	7.707
9.84	7.054
10.06	5.193
10.28	5.757
10.5	2.047
10.72	11.815
10.94	14.024
11.16	14.097
11.38	4.594
11.6	0.945
11.82	21.235
12.04	15.586
12.26	10.423
12.48	18.965
12.7	2.702
12.92	11.856
13.14	12.045
13.36	2.01
13.58	1.281
13.8	7.005
14.02	5.973
14.24	1.671
14.46	2.48
14.68	10.859
14.9	10.888
15.12	0.745
15.34	0.566
15.56	6.485
15.78	3.169
16	1.019
16.22	18.004
16.44	4.852
16.66	19.014
16.88	8.144
17.1	24.229
17.32	17.258
17.54	0.425
17.76	10.595
17.98	14.872
18.2	9.004
18.42	14.905
18.64	13.396
18.86	13.229
19.08	6.166
19.3	1.594
19.52	0.856
19.74	0.604
19.96	0.615
20.18	5.531
20.4	16.112
20.62	5.703
20.84	11.374
21.06	10.325
21.28	15.236
21.5	2.326
21.72	3.523
21.94	11.048
22.16	2.184
22.38	29.616
22.6	12.951
22.82	12.675
23.04	14.495
23.26	11.499
23.48	19.167
23.7	8.743
23.92	6.615
24.14	17.84
24.36	6.886
24.58	15.204
24.8	10.921
25.02	6.471
25.24	5.938
25.46	3.483
25.68	7.96
25.9	5.263
26.12	5.456
26.34	36.61
26.56	10.513
26.78	11.502
27	3.54
27.22	23.311
27.44	13.28
27.66	12.61
27.88	0.84
28.1	1.655
28.32	1.261
28.54	1.908
28.76	9.824
28.98	18.828
29.2	766.847
29.42	52.053
29.64	6.43
29.86	9.893
30.08	9.54
30.3	43.218
30.52	23.638
30.74	17.581
30.96	12.203
31.18	8.716
31.4	2.36
31.62	18.928
31.84	8.339
32.06	14.469
32.28	2.51
32.5	1.314
32.72	12.148
32.94	9.985
33.16	0.205
33.38	17.619
33.6	0.041
33.82	71.132
34.04	21.131
34.26	0.584
34.48	0.938
34.7	17.795
34.92	0.11
35.14	12.934
35.36	8.976
35.58	9.816
35.8	10.09
36.02	5.211
36.24	7.565
36.46	16.335
36.68	21.607
36.9	19.524
37.12	10.488
37.34	11.286
37.56	14.046
37.78	15.541
38	14.52
38.22	18.836
38.44	11.485
38.66	12.976
38.88	0.644
39.1	11.743
39.32	3.685
39.54	9.259
39.76	2.382
39.98	7.197
40.2	10.411
40.42	13.742
40.64	2.973
40.86	8.211
41.08	10.057
41.3	10.455
41.52	10.914
41.74	13.472
41.96	13.405
42.18	14.201
42.4	19.276
42.62	23.634
42.84	16.693
43.06	15.355
43.28	10.918
43.5	1.645
43.72	12.942
43.94	16.107
44.16	16.354
44.38	16.044
44.6	20.986
44.82	7.166
45.04	17.965
45.26	11.368
45.48	16.531
45.7	18.975
45.92	5.976
46.14	13.407
46.36	12.955
46.58	19.444
46.8	19.971
47.02	5.169
47.24	3.868
47.46	9.345
47.68	18.402
47.9	0.691
48.12	15.495
48.34	39.016
48.56	194.991
48.78	149.547
49	29.092
49.22	9.941
49.44	1.551
49.66	1.395
49.88	0.463
50.1	2.037
50.32	8.658
50.54	17.828
50.76	5.362
50.98	1.104
51.2	5.141
51.42	21.111
51.64	36.284
51.86	15.004
52.08	17.839
52.3	1.497
52.52	3.979
52.74	18.234
52.96	6.142
53.18	14.558
53.4	11.841
53.62	10.526
53.84	3.394
54.06	12.331
54.28	8.545
54.5	8.253
54.72	8.184
54.94	12.625
55.16	0.093
55.38	0.289
55.6	5.724
55.82	4.16
56.04	16.423
56.26	26.488
56.48	9.293
56.7	3.075
56.92	22.545
57.14	9.712
57.36	29.115
57.58	227.082
57.8	105.25
58.02	37.144
58.24	14.762
58.46	1.121
58.68	5.886
58.9	15.231
59.12	3.149
59.34	4.808
59.56	23.651
59.78	18.278
60	25.2
60.22	30.578
60.44	1.36
60.66	7.929
60.88	0.236
61.1	6.07
61.32	2.862
61.54	8.87
61.76	2.378
61.98	2.002
62.2	8.562
62.42	4.3
62.64	2.52
62.86	1.067
63.08	34.892
63.3	21.863
63.52	5.709
63.74	3.618
63.96	0.555
64.18	1.252
64.4	1.184
64.62	18.978
64.84	5.85
65.06	19.804
65.28	15.843
65.5	4.539
65.72	21.062
65.94	7.667
66.16	17.968
66.38	19.8
66.6	29.362
66.82	20.878
67.04	14.952
67.26	28.076
67.48	5.491
67.7	1.159
67.92	24.404
68.14	29.016
68.36	30.249
68.58	6.043
68.8	4.174
69.02	13.803
69.24	16.654
69.46	26.373
69.68	0.588
69.9	1.147
70.12	6.076
70.34	8.162
70.56	15.715
70.78	24.23
71	32.078
71.22	24.865
71.44	25.399
71.66	12.951
71.88	19.545
72.1	12.936
72.32	9.476
72.54	18.994
72.76	29.311
72.98	3.34
73.2	13.111
73.42	11.994
73.64	6.179
73.86	19.734
74.08	16.164
74.3	3.917
74.52	1.204
74.74	21.363
74.96	11.089
75.18	26.77
75.4	1.735
75.62	1.886
75.84	18.089
76.06	4.492
76.28	22.868
76.5	19.932
76.72	13.482
76.94	15.721
77.16	12.962
77.38	14.966
77.6	15.162
77.82	3.071
78.04	9.586
78.26	4.376
78.48	24.191
78.7	32.863
78.92	29.492
79.14	9.741
79.36	16.246
79.58	6.162
79.8	8.828
80.02	8.512
80.24	4.066
80.46	34.68
80.68	15.348
80.9	33.556
81.12	33.472
81.34	26.497
81.56	7.429
81.78	7.897
82	7.282
82.22	21.029
82.44	5.1
82.66	7.752
82.88	18.676
83.1	27.378
83.32	0.22
83.54	1.924
83.76	4.149
83.98	8.838
84.2	17.279
84.42	18.457
84.64	0.488
84.86	17.359
85.08	26.929
85.3	20.067
85.52	4.69
85.74	0.656
85.96	14.196
86.18	5.158
86.4	1.708
86.62	7.671
86.84	7.873
87.06	12.439
87.28	0.174
87.5	34.562
87.72	3.631
87.94	18.369
88.16	6.04
88.38	7.488
88.6	12.746
88.82	23.457
89.04	15.478
89.26	37.824
89.48	3.383
89.7	8.591
89.92	14.005
