Measurement: Powder, Xray Data XY Processed
Mineral: Rhodochrosite
Rruff sample: R100002
Ideal chemistry: Mn^2+^CO_3_
Locality: Wudong mine, Liubao, Guangxi  Autonomous Region, China
Source: Marcus Origlieri
Description: Red cleavage fragment
Diffraction sample description: Powder
Cell parameters: a: 4.7720(2) b: 4.7720(2) c: 15.6453(5) alpha: 90 beta: 90 gamma: 120 volume: 308.55(2) crystal system: hexagonal
x	intensity
5	0
5.22	23.964
5.44	4.46555
5.66	20.5075
5.88	43.1323
6.1	6.50128
6.32	42.3653
6.54	79.0923
6.76	83.8591
6.98	98.2263
7.2	116.124
7.42	73.3061
7.64	23.1076
7.86	61.1686
8.08	49.398
8.3	2.9845
8.52	47.4652
8.74	25.1792
8.96	21.9427
9.18	31.4749
9.4	10.1239
9.62	26.1754
9.84	9.00503
10.06	21.6444
10.28	42.2037
10.5	11.5684
10.72	70.9859
10.94	11.0418
11.16	37.0951
11.38	39.0689
11.6	76.0323
11.82	46.2954
12.04	74.4997
12.26	12.3766
12.48	27.1468
12.7	6.92676
12.92	18.8131
13.14	37.2809
13.36	79.6924
13.58	36.6057
13.8	44.2419
14.02	22.3026
14.24	36.0258
14.46	29.9199
14.68	63.646
14.9	37.7516
15.12	22.0029
15.34	41.6219
15.56	11.2531
15.78	58.3139
16	28.5806
16.22	70.1003
16.44	63.1467
16.66	64.2035
16.88	29.7932
17.1	8.73184
17.32	55.9842
17.54	63.5143
17.76	33.1891
17.98	15.5766
18.2	46.0474
18.42	69.9827
18.64	54.876
18.86	28.595
19.08	44.5815
19.3	42.2131
19.52	3.39664
19.74	20.6121
19.96	38.7843
20.18	47.9808
20.4	32.1114
20.62	18.8794
20.84	28.4986
21.06	29.007
21.28	43.9923
21.5	40.8572
21.72	64.2934
21.94	31.0306
22.16	65.6255
22.38	75.1183
22.6	26.5101
22.82	15.6386
23.04	71.0104
23.26	55.082
23.48	20.9357
23.7	11.1342
23.92	59.0196
24.14	57.0156
24.36	241.948
24.58	14.1766
24.8	63.7619
25.02	25.764
25.24	37.8529
25.46	17.1462
25.68	42.3751
25.9	6.75815
26.12	36.4102
26.34	27.6068
26.56	7.64023
26.78	70.5644
27	59.6407
27.22	66.222
27.44	41.3832
27.66	55.434
27.88	56.3629
28.1	39.7255
28.32	139.68
28.54	19.2672
28.76	3.78366
28.98	64.2125
29.2	2.29199
29.42	41.6898
29.64	60.0084
29.86	21.4864
30.08	18.6118
30.3	1.51047
30.52	2.00278
30.74	43.7954
30.96	76.4845
31.18	179.901
31.4	5760.23
31.62	264.168
31.84	84.8843
32.06	47.1578
32.28	47.5823
32.5	34.6699
32.72	3.7504
32.94	36.0705
33.16	42.1721
33.38	81.1098
33.6	18.6391
33.82	37.4658
34.04	25.6829
34.26	59.4313
34.48	81.0075
34.7	29.5502
34.92	17.6276
35.14	12.0932
35.36	8.71469
35.58	74.1298
35.8	34.9016
36.02	3.33014
36.24	44.2476
36.46	71.4278
36.68	15.9564
36.9	31.3729
37.12	64.3965
37.34	58.1697
37.56	188.186
37.78	80.144
38	74.3713
38.22	42.4889
38.44	21.2679
38.66	26.49
38.88	41.2516
39.1	1.6835
39.32	27.4262
39.54	38.504
39.76	14.7083
39.98	72.2981
40.2	63.5073
40.42	45.6275
40.64	63.3062
40.86	31.3391
41.08	21.203
41.3	64.7838
41.52	294.446
41.74	73.7309
41.96	69.2163
42.18	18.1151
42.4	17.1768
42.62	78.3832
42.84	94.1073
43.06	37.7195
43.28	26.7347
43.5	49.0968
43.72	1.34271
43.94	43.7332
44.16	5.74707
44.38	11.8161
44.6	39.0425
44.82	29.5286
45.04	88.8794
45.26	253.576
45.48	99.2654
45.7	68.2499
45.92	2.22913
46.14	6.32626
46.36	72.0803
46.58	63.5302
46.8	73.5853
47.02	63.544
47.24	63.5847
47.46	44.102
47.68	12.6485
47.9	33.218
48.12	48.9184
48.34	32.961
48.56	56.7622
48.78	26.4031
49	28.9582
49.22	26.8515
49.44	9.34085
49.66	64.7172
49.88	51.9064
50.1	70.3362
50.32	64.7771
50.54	31.311
50.76	29.4944
50.98	22.4559
51.2	19.3665
51.42	107.372
51.64	430.203
51.86	621.917
52.08	92.9513
52.3	55.934
52.52	22.8662
52.74	26.2243
52.96	76.3003
53.18	25.8928
53.4	13.0766
53.62	12.3962
53.84	8.2168
54.06	27.7125
54.28	56.4544
54.5	52.5455
54.72	16.1396
54.94	4.0192
55.16	11.0046
55.38	68.7162
55.6	24.1507
55.82	15.9995
56.04	41.5973
56.26	25.0662
56.48	47.0646
56.7	34.3416
56.92	38.5986
57.14	10.0569
57.36	36.3857
57.58	33.5765
57.8	27.0162
58.02	46.2894
58.24	34.0491
58.46	22.2184
58.68	68.0045
58.9	59.4576
59.12	20.8338
59.34	57.1388
59.56	22.0828
59.78	4.2981
60	45.9475
60.22	85.6338
60.44	146.025
60.66	53.3167
60.88	37.3114
61.1	24.2941
61.32	11.0417
61.54	33.4014
61.76	41.4777
61.98	44.1866
62.2	31.4762
62.42	12.6871
62.64	36.0764
62.86	26.0909
63.08	32.7165
63.3	35.2648
63.52	42.7242
63.74	76.3942
63.96	49.0329
64.18	86.6823
64.4	37.0247
64.62	33.7278
64.84	16.6381
65.06	4.20184
65.28	10.1771
65.5	42.2882
65.72	56.5282
65.94	72.0895
66.16	6.07318
66.38	92.7117
66.6	29.8064
66.82	86.0492
67.04	99.3176
67.26	47.6119
67.48	26.1924
67.7	27.2953
67.92	151.889
68.14	86.1072
68.36	12.4734
68.58	8.34225
68.8	60.9231
69.02	22.3442
69.24	37.5063
69.46	70.7426
69.68	42.7276
69.9	12.8242
70.12	39.4867
70.34	15.924
70.56	17.013
70.78	11.765
71	42.5141
71.22	86.8729
71.44	30.1578
71.66	3.51935
71.88	10.2162
72.1	53.2006
72.32	117.55
72.54	86.2617
72.76	22.5099
72.98	7.38278
73.2	27.4738
73.42	17.1153
73.64	32.1634
73.86	1.52203
74.08	32.7794
74.3	49.417
74.52	94.1069
74.74	27.7413
74.96	38.0532
75.18	45.2277
75.4	56.3081
75.62	25.8474
75.84	86.58
76.06	14.1946
76.28	56.7302
76.5	45.8203
76.72	24.604
76.94	21.1785
77.16	9.89212
77.38	54.5826
77.6	24.4074
77.82	32.6497
78.04	26.1671
78.26	71.3989
78.48	32.2337
78.7	18.1443
78.92	45.8705
79.14	19.1898
79.36	36.5981
79.58	47.8528
79.8	37.7371
80.02	30.1211
80.24	29.3161
80.46	28.8224
80.68	11.0301
80.9	27.9498
81.12	59.2788
81.34	49.1106
81.56	45.8384
81.78	18.9296
82	79.6646
82.22	16.2451
82.44	58.2852
82.66	13.445
82.88	8.35403
83.1	23.2398
83.32	48.8957
83.54	94.5412
83.76	6.28995
83.98	45.8571
84.2	57.5013
84.42	64.4758
84.64	112.251
84.86	41.9327
85.08	57.1522
85.3	51.9045
85.52	3.98386
85.74	47.5976
85.96	51.2014
86.18	25.4562
86.4	18.9602
86.62	74.4681
86.84	22.3889
87.06	15.4308
87.28	28.4063
87.5	5.18686
87.72	37.4953
87.94	14.8899
88.16	71.0199
88.38	66.2893
88.6	76.8197
88.82	76.4373
89.04	78.18
89.26	35.7567
89.48	13.2028
89.7	32.1576
89.92	33.7785
