Measurement: Powder, Xray Data XY Processed
Mineral: Richterite
Rruff sample: R050414
Ideal chemistry: Na(CaNa)Mg_5_Si_8_O_22_(OH)_2_
Locality: Kokcha Valley, Badakhshan, Afghanistan
Source: Marcus Origlieri
Description: Transparent pale yellowish-green bladed crystal
Diffraction sample description: Powder
Measured chemistry: (Na_0.67_K_0.33_)_Σ=1_(Ca_1.19_Na_0.81_)_Σ=2_Mg_5.00_(Si_7.80_Al_0.19_Ti_0.01_)_Σ=8_O_22_((OH)_1.58_F_0.42_)_Σ=2_
Cell parameters: a: 9.9977(4) b: 17.9728(8) c: 5.2690(2) alpha: 90 beta: 106.118(4) gamma: 90 volume: 909.54(5) crystal system: monoclinic
x	intensity
5	0
5.22	4.39721
5.44	6.29071
5.66	9.15165
5.88	10.3336
6.1	7.86691
6.32	0.912788
6.54	10.7706
6.76	9.5681
6.98	2.53482
7.2	6.25322
7.42	3.28076
7.64	6.5575
7.86	7.2702
8.08	8.68737
8.3	1.00449
8.52	1.45425
8.74	1.6035
8.96	0.354362
9.18	0.145723
9.4	11.8185
9.62	4.71707
9.84	22.4561
10.06	2.93619
10.28	10.3022
10.5	396.541
10.72	9.10004
10.94	0.186924
11.16	6.7248
11.38	3.17498
11.6	10.5147
11.82	3.85505
12.04	2.08199
12.26	3.39163
12.48	4.99227
12.7	4.85114
12.92	2.08662
13.14	5.30104
13.36	0.600236
13.58	2.49334
13.8	11.6859
14.02	3.86612
14.24	10.0827
14.46	7.27984
14.68	10.0484
14.9	8.24812
15.12	8.09792
15.34	5.23703
15.56	3.03018
15.78	9.22031
16	9.36535
16.22	3.64108
16.44	8.279
16.66	4.13544
16.88	9.04152
17.1	5.88626
17.32	2.53446
17.54	9.56356
17.76	2.71492
17.98	8.72935
18.2	46.5988
18.42	21.4905
18.64	5.48284
18.86	1.38616
19.08	11.8964
19.3	2.01098
19.52	4.36666
19.74	35.7891
19.96	10.9461
20.18	1.00367
20.4	8.94905
20.62	2.89891
20.84	2.00072
21.06	6.16191
21.28	1.187
21.5	0.292874
21.72	4.26742
21.94	6.10288
22.16	3.87277
22.38	16.1922
22.6	8.08845
22.82	7.1527
23.04	59.5296
23.26	5.30956
23.48	0.280704
23.7	11.3095
23.92	4.9316
24.14	3.75448
24.36	7.71837
24.58	8.44889
24.8	6.98625
25.02	24.9374
25.24	8.46681
25.46	7.69017
25.68	7.44573
25.9	3.0522
26.12	8.57653
26.34	100.251
26.56	18.4717
26.78	7.12124
27	9.86324
27.22	243.733
27.44	5.67683
27.66	2.84524
27.88	6.61676
28.1	8.0593
28.32	362.223
28.54	23.9989
28.76	8.17938
28.98	8.98474
29.2	1.91182
29.42	32.7601
29.64	9.55354
29.86	6.20662
30.08	1.97238
30.3	177.054
30.52	42.6048
30.74	4.47442
30.96	9.32033
31.18	35.9084
31.4	6.96235
31.62	14.1606
31.84	20.4432
32.06	1.21649
32.28	2.06774
32.5	0.497347
32.72	85.119
32.94	15.437
33.16	222.674
33.38	22.2897
33.6	1.81654
33.82	3.22118
34.04	7.8939
34.26	2.98854
34.48	0.084819
34.7	36.2326
34.92	8.00391
35.14	12.009
35.36	11.1918
35.58	61.5363
35.8	2.61321
36.02	2.70484
36.24	4.66814
36.46	0.458322
36.68	0.370053
36.9	16.4998
37.12	5.27377
37.34	8.18722
37.56	14.8882
37.78	8.48655
38	1.68054
38.22	3.54799
38.44	35.4667
38.66	64.4826
38.88	5.95049
39.1	2.83468
39.32	18.0583
39.54	23.2812
39.76	14.5694
39.98	8.71815
40.2	5.67712
40.42	5.66127
40.64	2.74122
40.86	9.81445
41.08	7.88628
41.3	12.8041
41.52	10.9055
41.74	90.7573
41.96	17.0411
42.18	17.2782
42.4	1.31391
42.62	12.4243
42.84	5.46189
43.06	4.42751
43.28	0.651556
43.5	2.23579
43.72	4.88814
43.94	8.66698
44.16	29.5545
44.38	7.19733
44.6	12.129
44.82	30.0031
45.04	13.5489
45.26	28.3405
45.48	4.33128
45.7	4.44515
45.92	4.38018
46.14	5.5722
46.36	8.59422
46.58	17.3793
46.8	13.0541
47.02	5.51464
47.24	3.10655
47.46	9.41109
47.68	31.1665
47.9	7.85595
48.12	13.9983
48.34	11.4049
48.56	2.01439
48.78	1.18605
49	10.6543
49.22	7.39018
49.44	1.22799
49.66	8.13908
49.88	19.3325
50.1	7.12728
50.32	10.5215
50.54	4.61879
50.76	2.80493
50.98	11.2654
51.2	10.5747
51.42	3.69821
51.64	4.55264
51.86	5.90602
52.08	3.2488
52.3	5.55323
52.52	2.66077
52.74	1.845
52.96	10.7569
53.18	7.62913
53.4	1.40409
53.62	5.12955
53.84	3.72939
54.06	10.3213
54.28	0.275277
54.5	15.263
54.72	8.87396
54.94	19.2134
55.16	8.76039
55.38	10.3818
55.6	48.1609
55.82	11.6421
56.04	29.7646
56.26	7.99202
56.48	2.24606
56.7	5.42326
56.92	7.70131
57.14	17.0877
57.36	21.5691
57.58	52.6748
57.8	3.01588
58.02	0.077277
58.24	1.67891
58.46	5.00365
58.68	22.9841
58.9	15.9639
59.12	19.9678
59.34	2.45121
59.56	8.43301
59.78	4.30347
60	44.2526
60.22	15.2081
60.44	9.1708
60.66	2.92459
60.88	7.58319
61.1	5.56071
61.32	13.5761
61.54	19.9012
61.76	11.1846
61.98	20.7812
62.2	6.78855
62.42	0.200037
62.64	3.98701
62.86	11.8852
63.08	4.99324
63.3	3.99585
63.52	9.88857
63.74	9.79106
63.96	12.563
64.18	4.68012
64.4	68.9762
64.62	71.9869
64.84	14.3967
65.06	1.26359
65.28	8.07789
65.5	1.32371
65.72	0.319364
65.94	3.41396
66.16	9.84602
66.38	7.04045
66.6	14.4469
66.82	3.40713
67.04	1.15942
67.26	0.883872
67.48	11.6217
67.7	5.46362
67.92	6.30418
68.14	6.09075
68.36	10.8401
68.58	6.58872
68.8	7.26344
69.02	12.0654
69.24	7.9026
69.46	0.240597
69.68	8.63552
69.9	8.60066
70.12	15.5888
70.34	17.5983
70.56	12.6653
70.78	20.6572
71	6.22255
71.22	9.28773
71.44	7.32191
71.66	2.47472
71.88	3.60972
72.1	2.63116
72.32	2.51199
72.54	6.4331
72.76	9.38023
72.98	12.6437
73.2	5.30196
73.42	63.5343
73.64	34.6696
73.86	7.9044
74.08	0.99268
74.3	5.28763
74.52	0.89587
74.74	11.4656
74.96	8.8124
75.18	5.24832
75.4	1.27157
75.62	2.55677
75.84	3.76522
76.06	1.80253
76.28	0.182104
76.5	4.98625
76.72	2.18807
76.94	3.82153
77.16	6.55579
77.38	4.56352
77.6	2.63192
77.82	2.34287
78.04	4.61007
78.26	6.53104
78.48	8.43115
78.7	2.29127
78.92	5.10916
79.14	0.340507
79.36	3.57868
79.58	2.49856
79.8	29.5749
80.02	21.5943
80.24	5.41155
80.46	10.4422
80.68	6.6533
80.9	6.81496
81.12	7.93529
81.34	3.99514
81.56	3.0769
81.78	6.24906
82	7.30333
82.22	4.11431
82.44	13.2507
82.66	6.40597
82.88	3.44089
83.1	12.2846
83.32	11.2177
83.54	2.2751
83.76	5.37494
83.98	2.63045
84.2	3.53312
84.42	8.73694
84.64	4.71689
84.86	1.34576
85.08	4.33893
85.3	0.482611
85.52	7.49223
85.74	3.48022
85.96	10.3823
86.18	13.2646
86.4	3.11625
86.62	0.846148
86.84	0.147078
87.06	1.38922
87.28	4.49098
87.5	5.54653
87.72	9.7072
87.94	4.9551
88.16	4.10622
88.38	5.27385
88.6	0.350631
88.82	3.45791
89.04	2.60839
89.26	4.58299
89.48	0.381981
89.7	8.99582
89.92	3.4156
