Measurement: Powder, Xray Data XY Processed
Mineral: Riebeckite
Rruff sample: R060028
Ideal chemistry: [box]Na_2_(Fe^2+^_3_Fe^3+^_2_)Si_8_O_22_(OH)_2_
Locality: Transvaal, South Africa
Source: University of Arizona Mineral Museum
Description: Black to blue fibrous, known as blue asbestos
Diffraction sample description: Powder
Measured chemistry: ([box]_0.98_K_0.02_)(Na_0.98_Ca_0.02_)_2_(Fe^2+^_0.85_Mg_0.15_)_3_(Fe^3+^_0.99_[box]_0.01_)_2_Si_8.00_O_22_(OH)_2_
Cell parameters: a: 9.734(3) b: 18.01(1) c: 5.353(2) alpha: 90 beta: 103.69(5) gamma: 90 volume: 912.0(0) crystal system: monoclinic
x	intensity
5	0
5.22	25.3367
5.44	18.5693
5.66	6.96944
5.88	31.2728
6.1	29.007
6.32	14.9305
6.54	18.9628
6.76	22.436
6.98	12.0048
7.2	14.1258
7.42	20.4861
7.64	26.2093
7.86	16.7889
8.08	4.29672
8.3	25.0428
8.52	0.5895
8.74	26.5568
8.96	20.815
9.18	15.2746
9.4	7.30498
9.62	41.359
9.84	18.3165
10.06	30.4939
10.28	16.163
10.5	441.428
10.72	101.472
10.94	4.00256
11.16	8.11401
11.38	14.9622
11.6	19.1214
11.82	9.1777
12.04	27.0196
12.26	33.0676
12.48	17.5238
12.7	38.2208
12.92	9.73214
13.14	22.456
13.36	21.3258
13.58	21.9907
13.8	10.5313
14.02	2.61769
14.24	12.519
14.46	18.7634
14.68	1.06817
14.9	2.30486
15.12	12.1633
15.34	3.80904
15.56	14.4508
15.78	13.8859
16	16.3862
16.22	15.2736
16.44	26.9393
16.66	28.2008
16.88	11.9658
17.1	34.1482
17.32	11.0176
17.54	23.4458
17.76	18.8222
17.98	19.0917
18.2	31.433
18.42	22.6775
18.64	25.9831
18.86	13.7504
19.08	2.31274
19.3	11.0519
19.52	19.6884
19.74	66.0337
19.96	13.0857
20.18	3.76868
20.4	6.89941
20.62	24.7567
20.84	14.9348
21.06	8.90352
21.28	10.2589
21.5	19.8229
21.72	3.50326
21.94	1.90635
22.16	9.71578
22.38	20.5589
22.6	5.07873
22.82	17.3538
23.04	9.14478
23.26	16.2071
23.48	5.69134
23.7	6.5606
23.92	15.2437
24.14	25.4926
24.36	26.1761
24.58	21.9882
24.8	38.3803
25.02	2.86134
25.24	15.6182
25.46	0.419998
25.68	41.9237
25.9	20.5773
26.12	21.5971
26.34	33.6026
26.56	27.5157
26.78	9.04127
27	2.17613
27.22	34.6223
27.44	10.8669
27.66	23.2966
27.88	9.97806
28.1	9.08992
28.32	18.1866
28.54	27.8242
28.76	222.998
28.98	37.9432
29.2	15.7208
29.42	7.41145
29.64	11.4454
29.86	7.41537
30.08	24.8103
30.3	8.87135
30.52	14.9208
30.74	32.2924
30.96	18.8375
31.18	16.9988
31.4	5.4748
31.62	18.6995
31.84	21.9356
32.06	33.212
32.28	13.6475
32.5	5.58488
32.72	11.1653
32.94	37.7345
33.16	27.2442
33.38	3.75508
33.6	11.1889
33.82	3.96854
34.04	14.7133
34.26	15.3553
34.48	15.0161
34.7	4.43657
34.92	3.33975
35.14	24.449
35.36	27.706
35.58	6.53062
35.8	19.5998
36.02	0.560226
36.24	0.829674
36.46	19.8992
36.68	14.5135
36.9	20.0643
37.12	18.6683
37.34	24.8114
37.56	8.28851
37.78	26.5062
38	31.4685
38.22	7.13349
38.44	15.4111
38.66	14.0238
38.88	25.2854
39.1	17.9793
39.32	18.6958
39.54	0.793503
39.76	12.2388
39.98	23.9376
40.2	0.232922
40.42	4.57869
40.64	12.988
40.86	25.4018
41.08	8.10938
41.3	8.03723
41.52	26.1739
41.74	21.8037
41.96	21.2647
42.18	9.62186
42.4	15.9651
42.62	5.21773
42.84	2.97441
43.06	3.92656
43.28	24.1544
43.5	27.9727
43.72	13.2486
43.94	0.023842
44.16	6.80862
44.38	1.76552
44.6	29.2162
44.82	25.8269
45.04	13.0523
45.26	20.9051
45.48	13.1325
45.7	19.8762
45.92	32.8362
46.14	21.0038
46.36	8.41478
46.58	17.8401
46.8	20.4164
47.02	4.53745
47.24	24.8075
47.46	20.2675
47.68	9.7255
47.9	22.1755
48.12	2.69116
48.34	19.8252
48.56	4.22872
48.78	15.7091
49	1.98723
49.22	11.3478
49.44	10.3843
49.66	7.52111
49.88	19.0169
50.1	26.7773
50.32	13.5105
50.54	21.1202
50.76	15.8275
50.98	4.05873
51.2	7.89206
51.42	14.9894
51.64	8.0307
51.86	10.667
52.08	5.97028
52.3	9.29457
52.52	24.8606
52.74	13.6896
52.96	14.2377
53.18	5.99827
53.4	11.2536
53.62	14.646
53.84	28.8651
54.06	12.3237
54.28	18.8759
54.5	0.599567
54.72	8.18082
54.94	14.7994
55.16	4.63403
55.38	17.1728
55.6	28.82
55.82	5.76142
56.04	5.52949
56.26	15.6669
56.48	22.3587
56.7	3.12464
56.92	13.3515
57.14	22.8755
57.36	10.3628
57.58	24.8009
57.8	16.0648
58.02	22.4659
58.24	21.5856
58.46	22.0533
58.68	7.28115
58.9	20.8052
59.12	29.6986
59.34	18.8853
59.56	12.3265
59.78	23.3328
60	5.66999
60.22	2.954
60.44	8.90681
60.66	9.11228
60.88	4.55255
61.1	8.57805
61.32	14.5183
61.54	8.43286
61.76	8.30459
61.98	17.9135
62.2	1.41128
62.42	6.21122
62.64	17.3055
62.86	10.6952
63.08	11.7338
63.3	8.01795
63.52	9.0267
63.74	8.99075
63.96	20.4466
64.18	8.7529
64.4	8.2237
64.62	17.8113
64.84	13.5952
65.06	14.7939
65.28	20.8539
65.5	11.2665
65.72	10.8441
65.94	0.001736
66.16	9.8582
66.38	7.21293
66.6	13.4786
66.82	12.931
67.04	28.2779
67.26	0.990959
67.48	15.2499
67.7	11.7338
67.92	6.90595
68.14	14.4687
68.36	29.6484
68.58	12.5402
68.8	10.6975
69.02	11.2282
69.24	2.57234
69.46	9.57889
69.68	17.8655
69.9	8.24338
70.12	1.94247
70.34	22.7836
70.56	12.8544
70.78	6.64327
71	10.7015
71.22	9.54113
71.44	15.8714
71.66	21.7339
71.88	7.74307
72.1	18.868
72.32	16.7975
72.54	16.2684
72.76	5.85896
72.98	6.89759
73.2	10.3417
73.42	9.68486
73.64	14.8646
73.86	6.09069
74.08	2.32329
74.3	16.175
74.52	16.5634
74.74	12.7323
74.96	6.65083
75.18	10.2275
75.4	14.1721
75.62	14.8364
75.84	5.54681
76.06	19.327
76.28	15.0966
76.5	13.9819
76.72	2.65727
76.94	11.2907
77.16	13.0353
77.38	14.0333
77.6	8.12453
77.82	9.20132
78.04	11.449
78.26	17.6363
78.48	10.7596
78.7	6.02471
78.92	4.51795
79.14	12.0805
79.36	3.34773
79.58	3.74829
79.8	14.5578
80.02	7.50297
80.24	5.73643
80.46	4.87143
80.68	8.17802
80.9	13.7531
81.12	5.50348
81.34	18.1389
81.56	14.3321
81.78	12.3498
82	0.717909
82.22	7.42498
82.44	16.4195
82.66	12.0787
82.88	7.4686
83.1	7.17498
83.32	13.1779
83.54	15.2428
83.76	8.39955
83.98	13.3438
84.2	14.3666
84.42	10.6393
84.64	21.9057
84.86	13.1645
85.08	2.1328
85.3	5.61781
85.52	19.4391
85.74	5.14855
85.96	2.00747
86.18	2.30536
86.4	14.4333
86.62	12.5845
86.84	1.78109
87.06	3.67316
87.28	2.68456
87.5	2.02189
87.72	20.1721
87.94	3.48929
88.16	0.693867
88.38	1.16798
88.6	11.6878
88.82	5.65552
89.04	0.155996
89.26	7.99538
89.48	7.02231
89.7	17.438
89.92	18.9311
