Measurement: Powder, Xray Data XY Processed
Mineral: Rinkite-(Ce)
Rruff sample: R050229
Ideal chemistry: (Ca_3_Ce^3+^)Na(NaCa)Ti^4+^(Si_2_O_7_)_2_(OF)F_2_
Locality: Kipawa alkaline complex, near Sheffield Lake, Villedieu Township, Temiscamingue County, Quebec, Canada
Source: Marcus Origlieri
Description: Aggregate of coarsely crystalline yellowish-gray crystals associated with red eudialyte R050230
Diffraction sample description: Powder
Cell parameters: a: 7.3936(1) b: 5.6363(1) c: 18.7596(9) alpha: 90. beta: 101.39(1) gamma: 90. volume: 766.36(3) crystal system: monoclinic
x	intensity
5	0
5.22	1.841
5.44	13.604
5.66	9.647
5.88	9.498
6.1	1.45
6.32	7.62
6.54	5.481
6.76	7
6.98	7.863
7.2	6.317
7.42	15.865
7.64	8.807
7.86	17.922
8.08	0.181
8.3	11.076
8.52	1.395
8.74	6.448
8.96	3.762
9.18	6.831
9.4	13.049
9.62	77.318
9.84	6.669
10.06	10.651
10.28	3.687
10.5	10.589
10.72	2.049
10.94	9.311
11.16	2.445
11.38	6.981
11.6	0.903
11.82	0.026
12.04	3.377
12.26	9.425
12.48	7.481
12.7	7.568
12.92	8.728
13.14	5.509
13.36	0.177
13.58	9.527
13.8	0.571
14.02	9.021
14.24	8.179
14.46	0.985
14.68	14.055
14.9	0.619
15.12	0.982
15.34	9.626
15.56	7.753
15.78	8.955
16	2.068
16.22	13.291
16.44	19.295
16.66	1.043
16.88	10.57
17.1	4.631
17.32	6.983
17.54	9.027
17.76	15.211
17.98	0.656
18.2	9.286
18.42	6.559
18.64	0.48
18.86	6.536
19.08	2.487
19.3	7.19
19.52	4.736
19.74	1.61
19.96	4.161
20.18	12.873
20.4	10.647
20.62	12.217
20.84	5.813
21.06	16.197
21.28	3.412
21.5	5.405
21.72	4.797
21.94	18.865
22.16	3.496
22.38	5.594
22.6	8.015
22.82	8.946
23.04	6.12
23.26	9.082
23.48	15.284
23.7	1.251
23.92	4.173
24.14	2.693
24.36	2.564
24.58	1.028
24.8	5.778
25.02	42.713
25.24	10.848
25.46	5.038
25.68	0.69
25.9	6.855
26.12	16.014
26.34	18.043
26.56	10.794
26.78	5.008
27	4.68
27.22	12.494
27.44	3.554
27.66	5.375
27.88	1.975
28.1	10.894
28.32	6.365
28.54	7.512
28.76	8.653
28.98	46.14
29.2	98.117
29.42	21.459
29.64	0.924
29.86	9.726
30.08	0.869
30.3	6.987
30.52	51.131
30.74	10.826
30.96	8.076
31.18	1.358
31.4	9.023
31.62	3.954
31.84	4.344
32.06	14.535
32.28	18.482
32.5	4.853
32.72	7.338
32.94	2.415
33.16	23.964
33.38	40.226
33.6	4.642
33.82	5.625
34.04	0.082
34.26	12.617
34.48	9.684
34.7	2.521
34.92	9.366
35.14	2.61
35.36	8.362
35.58	11.263
35.8	0.975
36.02	13.37
36.24	12.892
36.46	8.242
36.68	9.277
36.9	3.978
37.12	9.278
37.34	7.001
37.56	5.485
37.78	27.973
38	5.544
38.22	5.439
38.44	7.438
38.66	12.517
38.88	8.959
39.1	5.082
39.32	6.171
39.54	6.739
39.76	5.512
39.98	12.43
40.2	0.132
40.42	8.927
40.64	5.883
40.86	3.767
41.08	8.345
41.3	2.022
41.52	11.894
41.74	6.838
41.96	11.606
42.18	10.288
42.4	0.603
42.62	0.875
42.84	1.021
43.06	8.93
43.28	5.012
43.5	8.855
43.72	6.941
43.94	0.71
44.16	10.439
44.38	8.3
44.6	1.079
44.82	7.946
45.04	22.979
45.26	26.808
45.48	3.448
45.7	5.398
45.92	4.444
46.14	18.197
46.36	6.334
46.58	4.455
46.8	7.951
47.02	10.05
47.24	9.535
47.46	9.265
47.68	13.149
47.9	9.206
48.12	2.879
48.34	4.493
48.56	1.059
48.78	0.395
49	9.221
49.22	35.452
49.44	25.052
49.66	6.931
49.88	2.99
50.1	3.076
50.32	7.239
50.54	9.849
50.76	12.648
50.98	9.045
51.2	13.365
51.42	3.939
51.64	11.905
51.86	1.483
52.08	2.692
52.3	5.216
52.52	2.249
52.74	14.334
52.96	1.377
53.18	3.233
53.4	2.935
53.62	0.578
53.84	9.087
54.06	2.888
54.28	8.036
54.5	5.986
54.72	24.737
54.94	35.193
55.16	9.079
55.38	4.508
55.6	7.764
55.82	9.204
56.04	6.523
56.26	6.884
56.48	4.275
56.7	0.084
56.92	3.08
57.14	16.118
57.36	3.627
57.58	13.559
57.8	6.514
58.02	7.361
58.24	18.36
58.46	6.519
58.68	10.4
58.9	11.514
59.12	0.529
59.34	2.724
59.56	0.419
59.78	3.839
60	2.794
60.22	6.588
60.44	7.687
60.66	15.317
60.88	10.89
61.1	11.023
61.32	5.847
61.54	8.907
61.76	2.247
61.98	14.923
62.2	0.886
62.42	12.364
62.64	2.603
62.86	0.186
63.08	10.668
63.3	7.369
63.52	14.63
63.74	4.763
63.96	10.133
64.18	8.405
64.4	7.766
64.62	0.079
64.84	5.997
65.06	5.826
65.28	3.447
65.5	2.678
65.72	3.455
65.94	2.184
66.16	3.219
66.38	5.139
66.6	15.177
66.82	8.077
67.04	7.183
67.26	7.533
67.48	4.757
67.7	1.734
67.92	3.829
68.14	5.91
68.36	4.044
68.58	2.09
68.8	1.409
69.02	2.36
69.24	8.357
69.46	6.458
69.68	3.331
69.9	1.466
70.12	6.645
70.34	5.879
70.56	7.075
70.78	3.189
71	3.41
71.22	2.206
71.44	3.185
71.66	13.347
71.88	3.412
72.1	7.521
72.32	6.436
72.54	8.438
72.76	7.319
72.98	9.185
73.2	9.898
73.42	0.049
73.64	0.234
73.86	2.907
74.08	0.303
74.3	4.595
74.52	0.806
74.74	7.905
74.96	11.72
75.18	4.46
75.4	4.589
75.62	3.743
75.84	0.283
76.06	1.798
76.28	6.066
76.5	5.333
76.72	0.633
76.94	5.142
77.16	4.138
77.38	7.37
77.6	11.709
77.82	5.763
78.04	0.712
78.26	3.615
78.48	6.508
78.7	4.295
78.92	0.777
79.14	9.202
79.36	7.03
79.58	3.973
79.8	8.027
80.02	2.796
80.24	8.706
80.46	4.122
80.68	4.258
80.9	5.445
81.12	10.641
81.34	0.159
81.56	4.852
81.78	8.989
82	4.931
82.22	2.825
82.44	10.835
82.66	1.787
82.88	6.344
83.1	0.151
83.32	3.478
83.54	1.394
83.76	8.507
83.98	7.646
84.2	6.825
84.42	6.966
84.64	8.283
84.86	13.364
85.08	2.508
85.3	6.518
85.52	11.434
85.74	6.112
85.96	6.042
86.18	1.926
86.4	8.671
86.62	11.39
86.84	5.29
87.06	8.023
87.28	2.921
87.5	3.049
87.72	9.439
87.94	2.256
88.16	7.514
88.38	3.901
88.6	7.108
88.82	4.304
89.04	4.614
89.26	7.159
89.48	7.83
89.7	1.163
89.92	1.258
