Measurement: Powder, Xray Data XY Processed
Mineral: Romarchite
Rruff sample: R080006
Ideal chemistry: SnO
Locality: Boundary Falls, Winnipeg River, Ontario, Canada
Source: Royal Ontario Museum
Description: Incrusted lustrous black crystals, reported to be fine-grained psuedomorphs of an unknown phase. Co-type material.
Diffraction sample description: Powder, using Mo radiation
Measured chemistry: Sn_1.00_O
Cell parameters: a: 3.8256(7) b: 3.8256(7) c: 4.879(3) alpha: 90 beta: 90 gamma: 90 volume: 71.41(4) crystal system: tetragonal
x	intensity
7.84	0
7.99	4.96498
8.14	13.3209
8.29	58.9743
8.44	87.4184
8.59	56.7505
8.74	18.9538
8.89	4.24144
9.04	7.56743
9.19	5.74081
9.34	25.562
9.49	19.4313
9.64	5.85559
9.79	3.89374
9.94	3.65112
10.09	3.20541
10.24	0.249023
10.39	9.00534
10.54	1.27184
10.69	0.541473
10.84	10.8312
10.99	16.127
11.14	23.4633
11.29	19.7022
11.44	14.0691
11.59	17.2571
11.74	14.7701
11.89	28.2423
12.04	26.7357
12.19	22.8009
12.34	27.566
12.49	33.0895
12.64	37.9553
12.79	51.4741
12.94	67.0556
13.09	155.567
13.24	312.563
13.39	838.411
13.54	1744.37
13.69	2033.69
13.84	1361.22
13.99	440.909
14.14	273.078
14.29	328.281
14.44	330.315
14.59	206.123
14.74	106.182
14.89	121.499
15.04	378.527
15.19	579.889
15.34	527.356
15.49	197.307
15.64	50.4655
15.79	31.3217
15.94	11.6295
16.09	16.3037
16.24	53.2406
16.39	109.545
16.54	170.052
16.69	203.722
16.84	187.069
16.99	128.947
17.14	51.4952
17.29	16.9098
17.44	16.3168
17.59	5.83563
17.74	0.582779
17.89	0.665283
18.04	0.418076
18.19	5.17989
18.34	11.4513
18.49	2.30664
18.64	16.3657
18.79	59.0802
18.94	66.5961
19.09	23.3355
19.24	10.7933
19.39	33.168
19.54	29.3011
19.69	28.1953
19.84	25.6442
19.99	14.8196
20.14	1.86458
20.29	0.25795
20.44	3.66548
20.59	4.97559
20.74	3.12984
20.89	2.03912
21.04	7.39684
21.19	35.9464
21.34	150.148
21.49	308.736
21.64	330.648
21.79	176.429
21.94	62.8605
22.09	52.5761
22.24	71.74
22.39	119.901
22.54	301.816
22.69	547.715
22.84	524.852
22.99	275.896
23.14	140.331
23.29	137.88
23.44	119.259
23.59	75.7595
23.74	29.2028
23.89	17.8609
24.04	18.2056
24.19	28.6135
24.34	18.5119
24.49	8.14195
24.64	2.80258
24.79	0.066498
24.94	10.5176
25.09	13.0228
25.24	72.1452
25.39	326.819
25.54	606.941
25.69	543.582
25.84	254.234
25.99	85.9449
26.14	56.3541
26.29	40.4208
26.44	30.0767
26.59	21.6915
26.74	30.1305
26.89	32.5767
27.04	46.486
27.19	114.487
27.34	286.346
27.49	416.956
27.64	368.469
27.79	192.347
27.94	71.3499
28.09	34.4522
28.24	16.5615
28.39	8.93384
28.54	2.75111
28.69	14.347
28.84	10.7188
28.99	6.79707
29.14	1.82117
29.29	9.46075
29.44	15.7368
29.59	20.9594
29.74	28.5055
29.89	31.9782
30.04	36.1885
30.19	22.2885
30.34	22.8472
30.49	60.2306
30.64	99.698
30.79	71.3461
30.94	29.4563
31.09	2.2922
31.24	5.10976
31.39	1.92848
31.54	1.08624
31.69	4.3389
31.84	0.877975
31.99	1.3996
32.14	4.09663
32.29	0.798759
32.44	1.1245
32.59	3.27511
32.74	6.1709
32.89	19.0088
33.04	23.0312
33.19	24.4816
33.34	39.4082
33.49	77.8152
33.64	105.884
33.79	100.71
33.94	77.6989
34.09	72.4232
34.24	90.0682
34.39	90.9622
34.54	70.2237
34.69	54.6259
34.84	67.4558
34.99	134.859
35.14	214.485
35.29	220.221
35.44	154.398
35.59	78.9219
35.74	44.5452
35.89	27.6343
36.04	13.4268
36.19	16.7129
36.34	22.4876
36.49	22.5746
36.64	16.8187
36.79	10.1644
36.94	11.5495
37.09	17.2957
37.24	37.2364
37.39	52.236
37.54	44.662
37.69	28.7268
37.84	18.2151
37.99	18.6684
38.14	37.0104
38.29	92.0614
38.44	123.168
38.59	108.954
38.74	68.7257
38.89	23.5451
39.04	9.31718
39.19	6.00165
39.34	8.59078
39.49	4.47314
39.64	0.61084
39.79	5.66171
39.94	18.667
40.09	56.2722
40.24	102.746
40.39	112.484
40.54	99.0254
40.69	65.1174
40.84	42.4613
40.99	26.5589
41.14	17.6442
41.29	19.6135
41.44	23.5146
41.59	33.3549
41.74	29.4481
41.89	20.5359
42.04	10.2078
42.19	7.38347
42.34	2.18813
42.49	1.24988
42.64	1.17824
42.79	0.348488
42.94	5.39729
43.09	7.47834
43.24	3.72662
43.39	3.56178
43.54	7.55191
43.69	12.2315
43.84	15.8036
43.99	17.4647
44.14	16.8973
44.29	12.7325
44.44	10.5283
44.59	7.30234
44.74	3.87442
44.89	1.46891
45.04	3.03107
45.19	0.940773
45.34	1.2528
45.49	0.931976
45.64	5.05525
45.79	14.6287
45.94	24.937
46.09	46.161
46.24	45.9194
46.39	37.6824
46.54	35.5442
46.69	19.4535
46.84	17.0199
46.99	22.4651
47.14	41.6492
47.29	47.1794
47.44	43.2603
47.59	40.7667
47.74	23.582
47.89	9.24661
48.04	10.3166
48.19	8.48123
48.34	0.68309
48.49	5.58383
48.64	0.723289
48.79	11.6318
48.94	27.0425
49.09	36.0527
49.24	42.4295
49.39	43.2072
49.54	40.558
49.69	38.1511
49.84	36.4269
49.99	33.4439
50.14	25.5733
50.29	17.331
50.44	17.1996
50.59	3.06885
50.74	2.91122
50.89	1.99283
51.04	10.2359
51.19	0.287399
51.34	3.06216
51.49	2.9425
51.64	0.754219
51.79	3.60448
51.94	1.22469
52.09	5.41744
52.24	18.863
52.39	34.5614
52.54	27.8107
52.69	25.0516
52.84	23.1007
52.99	20.2257
53.14	11.8489
53.29	3.05518
53.44	7.67247
53.59	12.4605
53.74	6.54343
53.89	11.0156
54.04	7.54937
54.19	4.47037
54.34	12.316
54.49	12.2791
54.64	11.9935
54.79	8.25773
54.94	7.75204
55.09	8.27525
55.24	7.60814
55.39	8.75547
55.54	3.20634
55.69	4.05851
55.84	8.4312
55.99	11.9662
56.14	19.0135
56.29	30.1157
56.44	26.0804
56.59	35.2317
56.74	35.9494
56.89	23.1257
57.04	10.9046
57.19	9.35298
57.34	6.16489
57.49	2.986
57.64	6.19717
57.79	1.64233
57.94	0.421516
58.09	5.77551
58.24	4.2119
58.39	0.566177
58.54	1.78002
58.69	11.0185
58.84	4.71241
58.99	4.92741
59.14	5.99926
59.29	17.48
59.44	22.31
59.59	17.2867
59.74	16.8463
59.89	15.5303
60.04	13.0331
60.19	3.33935
60.34	2.58336
60.49	5.40006
60.64	4.39274
60.79	7.13983
60.94	12.3548
61.09	11.3179
61.24	11.9869
61.39	7.92008
61.54	0
