Measurement: Powder, Xray Data XY Processed
Mineral: Rostite
Rruff sample: R061001
Ideal chemistry: AlS^6+^O_4_(OH)5H_2_O
Locality: Kladno, Bohmen, Czech Republic
Source: Michael Scott
Description: Chalky white nodular aggregates
Diffraction sample description: Powder
Cell parameters: a: 11.179(1) b: 13.055(2) c: 10.8969(6) alpha: 90 beta: 90 gamma: 90 volume: 1590.3(2) crystal system: orthorhombic
x	intensity
5	0
5.22	17.0217
5.44	0.43989
5.66	13.7836
5.88	5.40231
6.1	8.33891
6.32	16.9883
6.54	83.7142
6.76	17.0482
6.98	0.698126
7.2	5.24103
7.42	9.93383
7.64	8.609
7.86	8.38723
8.08	5.11874
8.3	9.52131
8.52	10.0107
8.74	2.05726
8.96	12.7085
9.18	7.46427
9.4	13.1597
9.62	10.2189
9.84	9.75418
10.06	11.2343
10.28	11.4192
10.5	20.0568
10.72	6.90706
10.94	14.0611
11.16	7.19466
11.38	1.85817
11.6	5.84335
11.82	18.2491
12.04	25.058
12.26	14.3705
12.48	23.4693
12.7	12.5112
12.92	20.479
13.14	15.9824
13.36	10.9416
13.58	16.4941
13.8	22.2739
14.02	12.962
14.24	11.7376
14.46	7.83405
14.68	3.73398
14.9	6.65563
15.12	0.349491
15.34	2.80941
15.56	8.75745
15.78	3.26905
16	5.78044
16.22	13.9503
16.44	14.2067
16.66	13.4815
16.88	10.8084
17.1	7.04041
17.32	9.08242
17.54	15.5565
17.76	22.9131
17.98	21.5205
18.2	16.3708
18.42	3.65705
18.64	9.72368
18.86	12.4728
19.08	1.92324
19.3	2.77637
19.52	7.44914
19.74	61.0116
19.96	7.85717
20.18	25.0595
20.4	38.0126
20.62	55.4087
20.84	35.4521
21.06	40.8528
21.28	486.292
21.5	13.1407
21.72	0.804745
21.94	2.53491
22.16	3.98331
22.38	12.0077
22.6	21.3058
22.82	272.499
23.04	13.3113
23.26	2.59332
23.48	1.70304
23.7	3.00245
23.92	16.3476
24.14	4.39645
24.36	16.3103
24.58	0.300318
24.8	13.4934
25.02	0.746191
25.24	5.66087
25.46	25.351
25.68	10.0361
25.9	8.18644
26.12	7.58917
26.34	13.0862
26.56	27.1824
26.78	27.4064
27	0.054564
27.22	12.4458
27.44	20.0176
27.66	8.60243
27.88	22.1836
28.1	1.39969
28.32	3.69439
28.54	7.95176
28.76	13.149
28.98	16.3784
29.2	12.0421
29.42	25.7256
29.64	35.4673
29.86	13.7551
30.08	9.68108
30.3	10.5967
30.52	7.6991
30.74	14.9405
30.96	9.18505
31.18	9.4506
31.4	4.67642
31.62	11.9054
31.84	9.93733
32.06	12.5683
32.28	5.51046
32.5	11.8656
32.72	45.1767
32.94	31.5483
33.16	25.9351
33.38	6.44863
33.6	1.92206
33.82	12.1581
34.04	10.6583
34.26	4.23531
34.48	13.2524
34.7	1.64667
34.92	10.6538
35.14	4.02504
35.36	6.69567
35.58	3.96043
35.8	10.3223
36.02	42.993
36.24	23.8429
36.46	13.4935
36.68	22.1292
36.9	8.28328
37.12	4.5266
37.34	19.6974
37.56	3.82267
37.78	3.40539
38	2.45779
38.22	21.4329
38.44	1.22533
38.66	10.7023
38.88	13.4539
39.1	14.4505
39.32	22.2958
39.54	8.02165
39.76	6.68925
39.98	5.72356
40.2	9.95359
40.42	8.1563
40.64	6.34096
40.86	13.5504
41.08	6.06442
41.3	8.93398
41.52	1.46912
41.74	16.131
41.96	10.3119
42.18	3.51667
42.4	1.2725
42.62	18.27
42.84	24.3223
43.06	14.4134
43.28	17.7808
43.5	18.187
43.72	3.3517
43.94	6.59483
44.16	1.16823
44.38	7.51005
44.6	33.8111
44.82	19.2837
45.04	12.7514
45.26	5.02125
45.48	1.45116
45.7	18.936
45.92	20.7971
46.14	13.4194
46.36	8.98174
46.58	0.976851
46.8	13.401
47.02	5.89903
47.24	5.91133
47.46	19.831
47.68	16.8562
47.9	0.889463
48.12	1.43379
48.34	7.22715
48.56	3.98552
48.78	4.20449
49	25.4418
49.22	13.6661
49.44	13.3268
49.66	14.6656
49.88	9.98299
50.1	2.47256
50.32	7.61432
50.54	19.7786
50.76	3.64545
50.98	15.1771
51.2	2.06595
51.42	4.10483
51.64	1.56225
51.86	9.28653
52.08	2.27099
52.3	16.1952
52.52	4.91644
52.74	2.00389
52.96	13.8794
53.18	9.8577
53.4	5.02506
53.62	0.126965
53.84	2.97234
54.06	14.013
54.28	11.2118
54.5	6.73882
54.72	16.4886
54.94	4.78033
55.16	13.918
55.38	6.24853
55.6	10.0102
55.82	6.92455
56.04	5.24845
56.26	3.46989
56.48	3.66775
56.7	3.96094
56.92	5.78779
57.14	4.72056
57.36	10.8632
57.58	3.11373
57.8	13.4216
58.02	10.054
58.24	4.16323
58.46	9.06337
58.68	4.06875
58.9	1.63999
59.12	4.50644
59.34	2.53567
59.56	4.1345
59.78	5.08544
60	7.90337
60.22	11.525
60.44	2.73293
60.66	15.3051
60.88	12.2465
61.1	4.71233
61.32	13.9567
61.54	5.92794
61.76	12.9624
61.98	4.54135
62.2	9.7875
62.42	5.14873
62.64	26.5747
62.86	1.70073
63.08	9.13874
63.3	10.6711
63.52	5.94054
63.74	9.89973
63.96	11.0577
64.18	2.12492
64.4	5.90509
64.62	5.72542
64.84	0.630953
65.06	7.39761
65.28	4.18407
65.5	7.21057
65.72	0.815977
65.94	8.60754
66.16	4.63859
66.38	4.68367
66.6	3.58636
66.82	7.70456
67.04	0.678369
67.26	8.70668
67.48	11.2142
67.7	4.39044
67.92	7.26426
68.14	8.47792
68.36	9.57219
68.58	4.62582
68.8	5.93634
69.02	13.3171
69.24	5.46394
69.46	10.5555
69.68	2.95144
69.9	19.6858
70.12	1.5789
70.34	9.54828
70.56	10.4771
70.78	12.5536
71	0.51629
71.22	3.0013
71.44	6.93664
71.66	3.34959
71.88	13.3241
72.1	8.86921
72.32	6.9197
72.54	5.06156
72.76	1.90974
72.98	9.18748
73.2	9.24745
73.42	8.23499
73.64	10.424
73.86	1.29195
74.08	9.99927
74.3	1.15618
74.52	2.50013
74.74	5.3404
74.96	11.2604
75.18	8.29308
75.4	7.47486
75.62	6.48109
75.84	14.4381
76.06	10.9544
76.28	9.74085
76.5	4.1906
76.72	0.168352
76.94	5.68297
77.16	15.9578
77.38	6.92215
77.6	10.9421
77.82	12.6637
78.04	7.63352
78.26	10.5502
78.48	4.40954
78.7	0.307449
78.92	10.7579
79.14	12.7092
79.36	6.19716
79.58	6.46881
79.8	3.76856
80.02	5.82021
80.24	15.7879
80.46	7.85676
80.68	3.76912
80.9	7.24311
81.12	10.1104
81.34	6.4086
81.56	15.486
81.78	3.68107
82	2.24894
82.22	8.32949
82.44	9.25526
82.66	6.34241
82.88	2.2772
83.1	10.4878
83.32	8.53634
83.54	4.72178
83.76	4.54807
83.98	2.65342
84.2	9.56983
84.42	8.60702
84.64	9.44576
84.86	4.45557
85.08	6.26241
85.3	6.20779
85.52	0.004858
85.74	8.91335
85.96	4.95739
86.18	8.64519
86.4	0.268456
86.62	12.9971
86.84	9.1191
87.06	2.18661
87.28	3.27931
87.5	1.4295
87.72	9.59634
87.94	10.6611
88.16	9.72141
88.38	8.00513
88.6	13.4008
88.82	10.5566
89.04	9.49794
89.26	8.79126
89.48	8.33498
89.7	3.19937
89.92	5.92852
