Measurement: Powder, Xray Data XY Processed
Mineral: Rutile
Rruff sample: R060493
Ideal chemistry: Ti^4+^O_2_
Locality: Diamantina, Minas Gerais, Brazil
Source: Michael Scott
Description: Black tetragonal prism
Diffraction sample description: Powder
Measured chemistry: Ti_1.00_O_2_
Cell parameters: a: 4.5959(1) b: 4.5959(1) c: 2.96031(9) alpha: 90. beta: 90. gamma: 90. volume: 62.530(3) crystal system: tetragonal
x	intensity
5	0
5.22	4.57857
5.44	9.2593
5.66	6.58012
5.88	8.13215
6.1	24.2051
6.32	17.8354
6.54	11.2122
6.76	2.67788
6.98	1.17448
7.2	0.64333
7.42	1.15278
7.64	6.64432
7.86	2.98143
8.08	5.15476
8.3	5.36554
8.52	9.48988
8.74	7.74609
8.96	7.93272
9.18	3.33794
9.4	4.07098
9.62	3.31607
9.84	3.28599
10.06	10.2557
10.28	6.27582
10.5	3.07778
10.72	10.8752
10.94	2.68598
11.16	1.567
11.38	3.2251
11.6	5.88823
11.82	6.53579
12.04	8.47958
12.26	3.52482
12.48	3.77866
12.7	1.93108
12.92	2.12218
13.14	2.40388
13.36	0.34461
13.58	1.79424
13.8	5.98652
14.02	2.29231
14.24	1.50186
14.46	1.55988
14.68	3.68408
14.9	5.74321
15.12	7.79568
15.34	4.95307
15.56	4.95395
15.78	4.9963
16	2.0307
16.22	3.05628
16.44	1.12426
16.66	0.673628
16.88	2.78527
17.1	2.72271
17.32	2.7081
17.54	4.62181
17.76	3.70519
17.98	1.61734
18.2	1.60311
18.42	0.612799
18.64	6.64191
18.86	0.698662
19.08	0.203576
19.3	4.71938
19.52	13.7846
19.74	6.79677
19.96	4.13238
20.18	5.00279
20.4	9.08557
20.62	0.120856
20.84	0.814707
21.06	0.812118
21.28	3.18184
21.5	7.07537
21.72	2.03213
21.94	1.01854
22.16	3.909
22.38	0.644839
22.6	1.67156
22.82	4.62679
23.04	1.53826
23.26	1.53842
23.48	1.55684
23.7	0.244193
23.92	2.78018
24.14	5.83212
24.36	1.9388
24.58	1.01577
24.8	10.8757
25.02	4.83998
25.24	0.9049
25.46	0.211666
25.68	2.65802
25.9	1.34369
26.12	1.16484
26.34	4.00046
26.56	5.8017
26.78	3.40138
27	6.4318
27.22	5.39307
27.44	100.257
27.66	32.3433
27.88	7.38165
28.1	5.58354
28.32	2.59112
28.54	5.7106
28.76	7.97347
28.98	10.1559
29.2	3.17729
29.42	2.43688
29.64	4.55428
29.86	0.730952
30.08	8.6397
30.3	3.73935
30.52	4.66587
30.74	2.91598
30.96	1.03701
31.18	6.11448
31.4	3.16121
31.62	1.2332
31.84	7.11864
32.06	3.20486
32.28	4.28744
32.5	5.35533
32.72	1.37536
32.94	2.50276
33.16	6.28275
33.38	5.44552
33.6	6.29187
33.82	3.28047
34.04	4.14336
34.26	0.178481
34.48	3.90248
34.7	5.71581
34.92	2.53275
35.14	4.40493
35.36	6.1741
35.58	1.11016
35.8	4.96353
36.02	6.91301
36.24	62.9395
36.46	7.02606
36.68	1.02265
36.9	3.21607
37.12	2.40114
37.34	6.71105
37.56	3.06782
37.78	3.18653
38	1.25357
38.22	3.22858
38.44	6.32223
38.66	5.29703
38.88	6.27093
39.1	6.24848
39.32	17.055
39.54	2.93478
39.76	0.862254
39.98	1.65081
40.2	3.59368
40.42	2.5698
40.64	2.56562
40.86	2.62874
41.08	3.68775
41.3	112.671
41.52	12.8828
41.74	4.9984
41.96	3.98352
42.18	0.039926
42.4	3.10912
42.62	1.84199
42.84	0.222673
43.06	2.23903
43.28	4.16613
43.5	6.12265
43.72	5.28439
43.94	1.23274
44.16	16.2038
44.38	4.37133
44.6	5.42636
44.82	1.44725
45.04	2.54143
45.26	5.56555
45.48	2.66386
45.7	8.76346
45.92	4.76228
46.14	0.271516
46.36	2.72825
46.58	3.66259
46.8	1.55056
47.02	1.47381
47.24	1.44276
47.46	3.44053
47.68	0.408363
47.9	0.405124
48.12	0.430938
48.34	5.60074
48.56	3.53285
48.78	6.60686
49	0.398089
49.22	1.71998
49.44	0.703493
49.66	3.6969
49.88	3.69945
50.1	4.73694
50.32	1.67024
50.54	3.5643
50.76	5.41303
50.98	2.47241
51.2	3.30846
51.42	1.25908
51.64	0.883489
51.86	8.05847
52.08	1.12481
52.3	4.19331
52.52	7.16179
52.74	3.11054
52.96	4.00629
53.18	3.9619
53.4	2.79139
53.62	0.717567
53.84	3.62246
54.06	5.68317
54.28	36.7175
54.5	111.732
54.72	12.5189
54.94	7.36231
55.16	2.21364
55.38	3.18496
55.6	0.84836
55.82	1.17993
56.04	4.25751
56.26	3.29677
56.48	5.39709
56.7	49.3526
56.92	6.27912
57.14	2.41456
57.36	2.87484
57.58	3.01715
57.8	4.20957
58.02	2.40896
58.24	2.69807
58.46	1.27634
58.68	2.67892
58.9	3.76196
59.12	0.776285
59.34	4.7655
59.56	3.65143
59.78	3.3803
60	0.310609
60.22	4.29578
60.44	5.25356
60.66	1.99698
60.88	2.03801
61.1	0.136401
61.32	0.90498
61.54	5.07199
61.76	3.03121
61.98	6.95706
62.2	4.01648
62.42	0.930349
62.64	4.82334
62.86	2.71389
63.08	5.6326
63.3	3.39797
63.52	2.30857
63.74	2.29422
63.96	5.28379
64.18	18.3133
64.4	6.34736
64.62	2.32205
64.84	0.572767
65.06	2.77868
65.28	1.17337
65.5	2.33898
65.72	5.50422
65.94	4.65954
66.16	3.73326
66.38	1.92446
66.6	5.90552
66.82	4.88184
67.04	7.94653
67.26	5.79475
67.48	2.39909
67.7	3.06794
67.92	0.15995
68.14	3.62766
68.36	6.28958
68.58	4.19107
68.8	5.90042
69.02	35.8566
69.24	24.0569
69.46	1.92685
69.68	4.98065
69.9	5.11552
70.12	10.3226
70.34	0.492767
70.56	4.83356
70.78	6.9692
71	2.1453
71.22	6.49488
71.44	1.57569
71.66	3.5364
71.88	0.334027
72.1	5.78216
72.32	3.75161
72.54	4.69738
72.76	5.68255
72.98	1.60184
73.2	0.499013
73.42	2.56272
73.64	0.343981
73.86	1.3658
74.08	9.30348
74.3	6.24389
74.52	1.79014
74.74	0.280382
74.96	9.54281
75.18	6.68257
75.4	3.65918
75.62	0.186556
75.84	3.76563
76.06	4.80202
76.28	1.7811
76.5	11.824
76.72	3.84351
76.94	4.79087
77.16	2.67963
77.38	2.65902
77.6	6.70247
77.82	0.725664
78.04	1.61202
78.26	0.644252
78.48	3.66934
78.7	0.686407
78.92	2.64034
79.14	0.653678
79.36	7.83363
79.58	4.82332
79.8	5.69581
80.02	1.68492
80.24	1.70514
80.46	3.86949
80.68	4.81295
80.9	5.78374
81.12	1.17251
81.34	3.82094
81.56	3.78129
81.78	0.620838
82	2.75347
82.22	3.76435
82.44	7.71975
82.66	1.74083
82.88	2.53135
83.1	3.50357
83.32	0.447117
83.54	1.308
83.76	2.31961
83.98	0.328101
84.2	3.2686
84.42	5.01967
84.64	3.95872
84.86	3.83523
85.08	2.72358
85.3	1.76885
85.52	0.176346
85.74	0.104089
85.96	0.923814
86.18	0.046825
86.4	2.06994
86.62	5.11534
86.84	3.15343
87.06	0.257235
87.28	2.32194
87.5	6.42278
87.72	4.61374
87.94	4.78821
88.16	1.71358
88.38	8.63747
88.6	1.30603
88.82	3.00304
89.04	0.953027
89.26	2.80781
89.48	11.1127
89.7	2.89451
89.92	3.0069
