Measurement: Powder, Xray Data XY Processed
Mineral: Salammoniac
Rruff sample: R061022
Ideal chemistry: N^3-^H_4_Cl
Locality: Schoeller mine, Kladno, Bohemia, Czech Republic
Source: Michael Scott
Description: A crust of colorless tabular crystals
Diffraction sample description: Powder
Measured chemistry: NH_4_Cl_1.00_ ; N, H not measured but estimated by stoichiometry
Cell parameters: a: 3.87662(4) b: 3.87662(4) c: 3.87662(4) alpha: 90 beta: 90 gamma: 90 volume: 58.259(2) crystal system: cubic
x	intensity
5	0
5.22	8.04509
5.44	8.90232
5.66	4.47165
5.88	6.45054
6.1	0.540381
6.32	0.558091
6.54	4.63569
6.76	1.12075
6.98	7.67554
7.2	5.21684
7.42	4.97222
7.64	2.90317
7.86	0.554969
8.08	0.095181
8.3	2.92644
8.52	9.82578
8.74	3.42594
8.96	3.86071
9.18	6.99189
9.4	2.51291
9.62	0.912857
9.84	10.031
10.06	3.80619
10.28	16.8115
10.5	3.89502
10.72	11.7613
10.94	3.44069
11.16	2.32981
11.38	8.27887
11.6	11.8876
11.82	8.46742
12.04	3.89409
12.26	13.3009
12.48	10.9421
12.7	7.6305
12.92	11
13.14	10.4636
13.36	0.019246
13.58	1.5791
13.8	8.01312
14.02	2.85892
14.24	2.23347
14.46	2.49914
14.68	14.5797
14.9	12.3245
15.12	3.06026
15.34	8.08163
15.56	1.86651
15.78	7.81471
16	10.6469
16.22	9.78086
16.44	10.0412
16.66	6.72859
16.88	7.73518
17.1	7.49678
17.32	2.7773
17.54	3.82717
17.76	11.9326
17.98	11.0527
18.2	2.27918
18.42	9.25968
18.64	12.2126
18.86	4.84168
19.08	5.01456
19.3	1.36311
19.52	5.62334
19.74	4.40954
19.96	4.52756
20.18	0.835365
20.4	2.99867
20.62	1.97801
20.84	8.19386
21.06	5.49842
21.28	4.03137
21.5	5.0896
21.72	5.96051
21.94	8.83282
22.16	5.91538
22.38	9.61402
22.6	13.5907
22.82	6.82501
23.04	120.849
23.26	7.54648
23.48	17.4972
23.7	7.1438
23.92	7.1123
24.14	1.115
24.36	5.25536
24.58	2.12722
24.8	0.088395
25.02	5.98539
25.24	0.751235
25.46	7.46071
25.68	5.62396
25.9	8.24745
26.12	8.80086
26.34	0.613985
26.56	8.14949
26.78	5.73227
27	11.4836
27.22	6.21904
27.44	6.80094
27.66	10.323
27.88	3.01092
28.1	2.52286
28.32	13.4329
28.54	2.31949
28.76	1.77339
28.98	2.96651
29.2	10.7294
29.42	21.4919
29.64	17.2572
29.86	5.04443
30.08	12.2508
30.3	7.96251
30.52	15.9869
30.74	3.30016
30.96	5.07239
31.18	7.70246
31.4	1.88335
31.62	10.4333
31.84	11.0272
32.06	12.5662
32.28	4.28525
32.5	14.8821
32.72	429.239
32.94	28.3882
33.16	4.5307
33.38	1.25108
33.6	4.42728
33.82	9.88331
34.04	11.4872
34.26	1.94448
34.48	9.43367
34.7	7.9996
34.92	11.4555
35.14	9.58461
35.36	5.95126
35.58	13.5757
35.8	17.6061
36.02	3.11745
36.24	1.74085
36.46	8.92128
36.68	1.25816
36.9	4.59893
37.12	8.51658
37.34	5.95455
37.56	6.29909
37.78	0.227146
38	3.46485
38.22	12.4265
38.44	5.23011
38.66	7.85161
38.88	5.77039
39.1	5.56893
39.32	5.34253
39.54	9.49877
39.76	7.29965
39.98	7.67138
40.2	10.5876
40.42	28.3093
40.64	8.27188
40.86	10.6484
41.08	9.59708
41.3	12.8592
41.52	4.78746
41.74	14.0357
41.96	6.70717
42.18	8.49228
42.4	4.57251
42.62	5.64542
42.84	2.77011
43.06	11.784
43.28	13.8633
43.5	17.4513
43.72	4.79676
43.94	5.34351
44.16	8.54994
44.38	4.99004
44.6	8.12638
44.82	11.4812
45.04	13.8495
45.26	6.9535
45.48	0.084857
45.7	14.9958
45.92	7.75597
46.14	7.61253
46.36	1.33394
46.58	10.8999
46.8	9.89416
47.02	56.053
47.24	8.35106
47.46	1.47905
47.68	4.65765
47.9	8.55059
48.12	7.90578
48.34	10.0475
48.56	7.4379
48.78	13.7903
49	9.81546
49.22	6.03724
49.44	7.72569
49.66	8.82393
49.88	11.8545
50.1	14.9054
50.32	8.28223
50.54	6.47436
50.76	9.50258
50.98	9.24353
51.2	4.89782
51.42	4.84526
51.64	1.29327
51.86	11.0279
52.08	4.96332
52.3	1.93293
52.52	3.96984
52.74	8.79663
52.96	33.9562
53.18	6.92332
53.4	7.25371
53.62	5.53179
53.84	11.573
54.06	6.86499
54.28	8.07792
54.5	4.0521
54.72	1.83956
54.94	8.51403
55.16	6.58901
55.38	4.53074
55.6	10.4635
55.82	0.273997
56.04	12.1915
56.26	6.30897
56.48	3.00678
56.7	8.16441
56.92	1.97453
57.14	10.8254
57.36	16.683
57.58	7.6626
57.8	7.70034
58.02	10.6436
58.24	34.0236
58.46	84.103
58.68	0.969551
58.9	0.049529
59.12	6.28945
59.34	0.575737
59.56	6.71588
59.78	3.8726
60	0.969926
60.22	9.91654
60.44	4.28978
60.66	6.04459
60.88	4.0808
61.1	1.15182
61.32	1.4821
61.54	9.49868
61.76	3.70379
61.98	0.232722
62.2	5.79573
62.42	4.79109
62.64	1.87503
62.86	2.75831
63.08	4.70848
63.3	11.6161
63.52	18.6072
63.74	4.46144
63.96	6.18493
64.18	2.09446
64.4	7.95057
64.62	3.01105
64.84	6.00849
65.06	7.12334
65.28	6.15076
65.5	11.2153
65.72	4.46375
65.94	3.56542
66.16	1.4346
66.38	7.71468
66.6	7.69621
66.82	3.13041
67.04	8.1319
67.26	10.1912
67.48	6.1396
67.7	4.26263
67.92	5.35752
68.14	4.31193
68.36	11.578
68.58	13.6349
68.8	5.48663
69.02	5.57865
69.24	1.31219
69.46	7.70341
69.68	2.83259
69.9	4.01227
70.12	4.86012
70.34	3.15416
70.56	4.10912
70.78	1.95249
71	2.02647
71.22	4.02043
71.44	5.05213
71.66	7.25515
71.88	3.77775
72.1	15.743
72.32	8.51442
72.54	8.42629
72.76	5.03923
72.98	3.13486
73.2	12.1433
73.42	20.0259
73.64	4.87439
73.86	2.70813
74.08	1.61781
74.3	3.62718
74.52	6.69402
74.74	3.95776
74.96	8.11781
75.18	4.1009
75.4	1.12069
75.62	5.01988
75.84	6.12709
76.06	5.20656
76.28	7.45742
76.5	7.25048
76.72	7.23851
76.94	7.15598
77.16	4.89327
77.38	2.94007
77.6	8.98551
77.82	5.9287
78.04	7.90239
78.26	9.96666
78.48	2.7136
78.7	3.65544
78.92	0.309212
79.14	8.77565
79.36	5.04472
79.58	5.07993
79.8	1.9682
80.02	0.260654
80.24	5.309
80.46	1.33659
80.68	4.38136
80.9	2.3617
81.12	5.32588
81.34	5.15205
81.56	4.33201
81.78	4.03435
82	4.95783
82.22	0.603863
82.44	1.7124
82.66	4.55767
82.88	3.83979
83.1	2.7033
83.32	5.7388
83.54	7.84897
83.76	3.95519
83.98	6.77985
84.2	8.9843
84.42	4.38851
84.64	14.7398
84.86	8.56161
85.08	3.62636
85.3	5.44658
85.52	4.73247
85.74	0.287286
85.96	3.57667
86.18	5.64638
86.4	7.59036
86.62	11.4695
86.84	6.16416
87.06	12.0658
87.28	6.09267
87.5	4.31251
87.72	0.138949
87.94	1.16858
88.16	2.36147
88.38	9.89004
88.6	14.0042
88.82	2.97571
89.04	6.21273
89.26	16.4783
89.48	2.6467
89.7	0.689357
89.92	5.48103
