Measurement: Powder, Xray Data XY Processed
Mineral: Salammoniac
Rruff sample: R060521
Ideal chemistry: N^3-^H_4_Cl
Locality: Tien-Shan Mountains, Tadzhikistan, U.S.S.R
Source: Michael Scott
Description: White dendritic
Diffraction sample description: Powder
Measured chemistry: NH_4_Cl_1.00_ ; N, H not measured but estimated by stoichiometry
Cell parameters: a: 3.87818(5) b: 3.87818(5) c: 3.87818(5) alpha: 90. beta: 90. gamma: 90. volume: 58.329(2) crystal system: cubic
x	intensity
5	0
5.22	6.48277
5.44	5.40452
5.66	6.80018
5.88	6.165
6.1	9.23039
6.32	2.44716
6.54	9.62712
6.76	4.18135
6.98	7.75446
7.2	20.0959
7.42	11.7172
7.64	9.17428
7.86	0.395259
8.08	5.35063
8.3	3.11347
8.52	0.364993
8.74	4.07021
8.96	4.46233
9.18	7.58878
9.4	0.158578
9.62	7.03806
9.84	11.0607
10.06	6.027
10.28	12.0794
10.5	2.0647
10.72	5.15875
10.94	6.2214
11.16	1.29906
11.38	6.42032
11.6	5.47983
11.82	2.41744
12.04	4.41491
12.26	6.54013
12.48	0.135776
12.7	3.22196
12.92	2.22971
13.14	5.22359
13.36	4.40359
13.58	2.55066
13.8	0.331301
14.02	0.827721
14.24	6.96813
14.46	1.04143
14.68	4.10018
14.9	6.9353
15.12	4.71755
15.34	0.897544
15.56	4.83506
15.78	12.9011
16	12.0233
16.22	6.01768
16.44	3.07249
16.66	4.00587
16.88	0.852231
17.1	3.14096
17.32	2.1901
17.54	5.1084
17.76	2.00518
17.98	5.12086
18.2	5.04142
18.42	4.88796
18.64	2.84823
18.86	2.71323
19.08	9.60986
19.3	0.359998
19.52	0.305081
19.74	1.63636
19.96	0.654359
20.18	2.75586
20.4	4.76546
20.62	5.83175
20.84	2.01387
21.06	3.03629
21.28	4.0204
21.5	1.14244
21.72	5.01831
21.94	5.90615
22.16	5.77065
22.38	3.69986
22.6	4.68005
22.82	0.68948
23.04	121.518
23.26	8.40689
23.48	3.38628
23.7	0.638919
23.92	7.20536
24.14	0.185215
24.36	3.34381
24.58	4.38687
24.8	1.66903
25.02	0.55639
25.24	2.43131
25.46	4.36662
25.68	3.42296
25.9	4.48347
26.12	4.48962
26.34	7.50551
26.56	4.63781
26.78	6.54681
27	6.45671
27.22	1.30253
27.44	5.31329
27.66	0.44057
27.88	1.65584
28.1	0.345815
28.32	1.65731
28.54	1.74288
28.76	5.68656
28.98	2.71086
29.2	1.60978
29.42	9.52376
29.64	1.6687
29.86	3.62063
30.08	3.56694
30.3	6.16893
30.52	5.86196
30.74	0.363668
30.96	4.28278
31.18	6.18682
31.4	2.78848
31.62	10.5359
31.84	0.2255
32.06	2.07952
32.28	3.85736
32.5	18.706
32.72	950.711
32.94	23.9406
33.16	9.98197
33.38	2.13392
33.6	3.08055
33.82	5.3085
34.04	2.47352
34.26	2.66276
34.48	4.62715
34.7	4.77342
34.92	0.846122
35.14	0.013427
35.36	2.10241
35.58	5.27565
35.8	2.36857
36.02	5.62843
36.24	5.79882
36.46	0.080512
36.68	3.22635
36.9	6.36633
37.12	5.53471
37.34	4.64088
37.56	1.56751
37.78	3.70614
38	3.80068
38.22	2.78607
38.44	5.74166
38.66	5.70101
38.88	0.334065
39.1	2.42463
39.32	3.30261
39.54	3.10012
39.76	3.06547
39.98	1.86849
40.2	3.85875
40.42	41.7907
40.64	5.88221
40.86	1.09147
41.08	2.87501
41.3	1.09601
41.52	2.07248
41.74	10.3307
41.96	4.49859
42.18	6.62606
42.4	0.657655
42.62	7.74568
42.84	0.723511
43.06	5.74782
43.28	0.132815
43.5	6.89214
43.72	0.074776
43.94	6.87318
44.16	0.124093
44.38	4.84006
44.6	5.71414
44.82	2.68732
45.04	4.72494
45.26	1.61465
45.48	3.48527
45.7	4.19064
45.92	1.00684
46.14	4.87322
46.36	7.64222
46.58	5.54116
46.8	7.48006
47.02	69.602
47.24	4.4794
47.46	7.60219
47.68	1.78591
47.9	4.89775
48.12	0.981788
48.34	4.11531
48.56	3.24582
48.78	1.37895
49	1.51
49.22	2.5747
49.44	3.57505
49.66	3.76668
49.88	3.62667
50.1	2.56823
50.32	3.6148
50.54	2.63159
50.76	3.54702
50.98	3.516
51.2	4.41111
51.42	2.22374
51.64	0.079205
51.86	1.88232
52.08	3.64347
52.3	3.824
52.52	1.82551
52.74	18.7237
52.96	46.8081
53.18	1.83243
53.4	5.85639
53.62	1.89357
53.84	8.97244
54.06	0.013816
54.28	0.158988
54.5	5.17077
54.72	1.02357
54.94	6.07843
55.16	8.13897
55.38	3.0637
55.6	0.235158
55.82	0.828482
56.04	1.28996
56.26	6.21635
56.48	2.06556
56.7	1.23855
56.92	3.19917
57.14	2.09285
57.36	5.92231
57.58	4.81601
57.8	5.82757
58.02	0.691134
58.24	58.7373
58.46	91.7345
58.68	3.75706
58.9	2.78322
59.12	2.61744
59.34	0.345096
59.56	5.81303
59.78	2.97725
60	6.24111
60.22	3.23166
60.44	2.24452
60.66	1.29968
60.88	2.23877
61.1	3.25578
61.32	7.27316
61.54	3.328
61.76	3.44605
61.98	4.42162
62.2	2.37082
62.42	1.37483
62.64	5.41589
62.86	5.43972
63.08	3.49256
63.3	8.59159
63.52	8.73091
63.74	0.196414
63.96	4.84315
64.18	3.82707
64.4	0.956112
64.62	6.05974
64.84	0.978271
65.06	0.021471
65.28	2.23966
65.5	7.0962
65.72	0.098592
65.94	3.07945
66.16	6.17637
66.38	3.159
66.6	11.0509
66.82	3.04735
67.04	1.19366
67.26	0.674762
67.48	0.534624
67.7	3.20822
67.92	3.09563
68.14	2.98391
68.36	10.8382
68.58	10.6583
68.8	5.79525
69.02	5.90709
69.24	3.88194
69.46	1.08545
69.68	5.20664
69.9	0.307258
70.12	1.35068
70.34	0.595015
70.56	6.63141
70.78	6.65199
71	1.65967
71.22	0.48156
71.44	1.45237
71.66	7.21206
71.88	1.34789
72.1	2.26225
72.32	0.21603
72.54	2.10782
72.76	4.93246
72.98	1.07413
73.2	33.1795
73.42	19.1727
73.64	4.18917
73.86	6.2196
74.08	4.15356
74.3	3.18674
74.52	5.26725
74.74	4.3634
74.96	5.52592
75.18	2.72694
75.4	7.81006
75.62	0.845678
75.84	0.803894
76.06	1.74793
76.28	3.81792
76.5	2.74454
76.72	1.49715
76.94	3.3404
77.16	2.15288
77.38	6.04533
77.6	0.786346
77.82	23.4806
78.04	6.47114
78.26	1.62516
78.48	2.57058
78.7	3.65546
78.92	3.82085
79.14	1.95524
79.36	2.10405
79.58	5.33241
79.8	3.40549
80.02	5.53092
80.24	2.66081
80.46	5.64714
80.68	6.57723
80.9	8.61814
81.12	0.335421
81.34	2.54036
81.56	1.47944
81.78	5.45176
82	4.31278
82.22	1.60759
82.44	6.37713
82.66	10.4354
82.88	8.36933
83.1	7.56627
83.32	2.41694
83.54	4.53613
83.76	4.58055
83.98	1.57034
84.2	4.53386
84.42	6.72464
84.64	0.469723
84.86	4.36075
85.08	3.27285
85.3	2.3602
85.52	9.06571
85.74	2.11041
85.96	3.95721
86.18	4.89588
86.4	3.84498
86.62	6.73897
86.84	0.659511
87.06	13.6328
87.28	8.64477
87.5	4.66486
87.72	1.55252
87.94	2.49362
88.16	4.47111
88.38	5.6397
88.6	0.925297
88.82	4.95985
89.04	2.04137
89.26	5.26308
89.48	6.57709
89.7	1.87336
89.92	0.340811
