Measurement: Powder, Xray Data XY Processed
Mineral: Sanbornite
Rruff sample: R050001
Ideal chemistry: BaSi_2_O_5_
Locality: Empire #1 mine, Fresno County, California, USA
Source: University of Arizona Mineral Museum
Description: An aggregate of white to colorless pearly anhedral plates
Diffraction sample description: Powder
Measured chemistry: Ba_1.00_Si_2.00_O_5_
Cell parameters: a: 4.6323(8) b: 7.6924(7) c: 13.5286(4) alpha: 90. beta: 90. gamma: 90. volume: 482.07(6) crystal system: orthorhombic
x	intensity
5	0
5.22	3.878
5.44	1.057
5.66	7.842
5.88	15.834
6.1	11.983
6.32	14.338
6.54	14.469
6.76	12.695
6.98	4.037
7.2	4.196
7.42	3.383
7.64	6.489
7.86	1.483
8.08	0.557
8.3	2.293
8.52	8.104
8.74	0.919
8.96	6.674
9.18	3.452
9.4	2.362
9.62	11.241
9.84	1.304
10.06	2.291
10.28	3.553
10.5	2.96
10.72	9.116
10.94	1.201
11.16	3.55
11.38	1.715
11.6	4.851
11.82	9.603
12.04	5.558
12.26	3.509
12.48	4.736
12.7	6.533
12.92	2.35
13.14	225.334
13.36	3.356
13.58	2.298
13.8	1.311
14.02	5.314
14.24	5.417
14.46	1.703
14.68	0.698
14.9	8.781
15.12	3.054
15.34	4.124
15.56	6.168
15.78	6.328
16	3.238
16.22	0.822
16.44	1.155
16.66	5.132
16.88	4.942
17.1	2.958
17.32	7.953
17.54	106.898
17.76	6.958
17.98	2.235
18.2	2.288
18.42	2.516
18.64	10.699
18.86	0.955
19.08	3.259
19.3	2.34
19.52	2.495
19.74	1.539
19.96	5.592
20.18	8.507
20.4	2.558
20.62	3.552
20.84	6.667
21.06	10.524
21.28	2.302
21.5	0.009
21.72	1.81
21.94	2.822
22.16	2.602
22.38	19.446
22.6	25.332
22.82	6.015
23.04	10.925
23.26	1.029
23.48	5.135
23.7	5.257
23.92	3.598
24.14	9.87
24.36	5.655
24.58	7.87
24.8	2.808
25.02	2.578
25.24	0.265
25.46	4.902
25.68	0.866
25.9	8.643
26.12	53.349
26.34	7.914
26.56	18.337
26.78	56.058
27	6.785
27.22	1.797
27.44	0.178
27.66	47.865
27.88	7.985
28.1	1.172
28.32	2.298
28.54	7.591
28.76	30.032
28.98	334.371
29.2	15.709
29.42	0.994
29.64	6.338
29.86	4.767
30.08	7.092
30.3	5.582
30.52	9.902
30.74	4.108
30.96	7.15
31.18	0.103
31.4	1.177
31.62	8.091
31.84	1.071
32.06	1.135
32.28	2.666
32.5	11.66
32.72	24.721
32.94	73.658
33.16	34.772
33.38	10.682
33.6	7.565
33.82	0.608
34.04	1.671
34.26	5.75
34.48	2.836
34.7	2.124
34.92	42.355
35.14	3.373
35.36	13.569
35.58	0.685
35.8	2.891
36.02	3.044
36.24	3.111
36.46	5.13
36.68	3.185
36.9	0.228
37.12	9.98
37.34	0.148
37.56	10.495
37.78	3.437
38	5.237
38.22	5.201
38.44	1.086
38.66	11.404
38.88	5.715
39.1	6.6
39.32	3.255
39.54	2.852
39.76	5.51
39.98	4.121
40.2	7.584
40.42	7.078
40.64	53.402
40.86	1.841
41.08	4.06
41.3	6.399
41.52	4.059
41.74	64.996
41.96	35.063
42.18	11.213
42.4	12.984
42.62	24.683
42.84	6.307
43.06	12.942
43.28	12.407
43.5	3.593
43.72	0.912
43.94	4.217
44.16	10.45
44.38	16.688
44.6	13.512
44.82	29.223
45.04	2.135
45.26	1.055
45.48	14.153
45.7	1.258
45.92	4.299
46.14	0.365
46.36	2.364
46.58	0.23
46.8	1.255
47.02	3.467
47.24	7.871
47.46	7.61
47.68	5.547
47.9	12.43
48.12	2.358
48.34	2.356
48.56	2.639
48.78	5.73
49	6.974
49.22	11.041
49.44	9.998
49.66	2.177
49.88	0.925
50.1	0.028
50.32	2.058
50.54	2.302
50.76	9.706
50.98	51.689
51.2	5.727
51.42	4.563
51.64	1.575
51.86	3.44
52.08	1.514
52.3	0.632
52.52	4.309
52.74	18.136
52.96	7.828
53.18	0.616
53.4	5.086
53.62	3.038
53.84	8.252
54.06	14.316
54.28	115.514
54.5	20.498
54.72	4.614
54.94	0.141
55.16	3.343
55.38	3.771
55.6	13.181
55.82	17.316
56.04	3.485
56.26	6.468
56.48	8.386
56.7	1.059
56.92	9.853
57.14	4.55
57.36	6.197
57.58	6.573
57.8	2.952
58.02	5.515
58.24	14.292
58.46	8.971
58.68	6.834
58.9	5.963
59.12	1.403
59.34	6.606
59.56	13.913
59.78	4.316
60	3.996
60.22	1.558
60.44	4.926
60.66	3.208
60.88	3.497
61.1	2.801
61.32	4.982
61.54	3.619
61.76	3.488
61.98	4.319
62.2	2.077
62.42	0.537
62.64	6.1
62.86	7.85
63.08	6.683
63.3	11.506
63.52	17.207
63.74	13.198
63.96	4.27
64.18	2.61
64.4	6.789
64.62	0.921
64.84	9.075
65.06	1.138
65.28	0.183
65.5	1.311
65.72	2.326
65.94	2.097
66.16	7.062
66.38	17.958
66.6	5.853
66.82	7.949
67.04	15.315
67.26	8.444
67.48	4.519
67.7	0.462
67.92	0.64
68.14	0.528
68.36	3.436
68.58	8.303
68.8	1.113
69.02	8.969
69.24	1.618
69.46	6.334
69.68	10.06
69.9	4.937
70.12	8.074
70.34	7.019
70.56	1.909
70.78	6.341
71	0.652
71.22	5.045
71.44	5.58
71.66	6.631
71.88	1.681
72.1	2.864
72.32	2.989
72.54	3.95
72.76	10.975
72.98	14.736
73.2	0.384
73.42	4.188
73.64	7.825
73.86	14.291
74.08	25.218
74.3	25.397
74.52	22.394
74.74	10.355
74.96	6.61
75.18	7.688
75.4	0.068
75.62	0.155
75.84	0.281
76.06	2.986
76.28	3.46
76.5	0.462
76.72	3.516
76.94	1.477
77.16	1.525
77.38	1.421
77.6	1.584
77.82	2.523
78.04	7.696
78.26	4.225
78.48	0.923
78.7	0.381
78.92	4.442
79.14	2.247
79.36	5.048
79.58	8.978
79.8	0.874
80.02	5.598
80.24	10.497
80.46	2.561
80.68	5.862
80.9	7.989
81.12	0.122
81.34	2.223
81.56	2.363
81.78	3.543
82	6.556
82.22	0.411
82.44	1.71
82.66	3.698
82.88	4.506
83.1	5.294
83.32	14.467
83.54	8.449
83.76	8.685
83.98	0.724
84.2	1.816
84.42	2.94
84.64	4.134
84.86	0.359
85.08	3.384
85.3	2.452
85.52	0.496
85.74	9.38
85.96	1.303
86.18	3.002
86.4	0.864
86.62	2.732
86.84	6.594
87.06	4.357
87.28	5.051
87.5	5.977
87.72	3.906
87.94	0.923
88.16	1.91
88.38	1.989
88.6	9.096
88.82	2.315
89.04	5.363
89.26	1.609
89.48	0.946
89.7	4.831
89.92	6.701
