Measurement: Powder, Xray Data XY Processed
Mineral: Sanbornite
Rruff sample: R060489
Ideal chemistry: BaSi_2_O_5_
Locality: Big Creek, Fresno County, California, USA
Source: Michael Scott
Description: Colorless cleavage plate
Diffraction sample description: Powder
Measured chemistry: Ba_1.00_Si_1.97_O_5_
Cell parameters: a: 4.6351(4) b: 7.6932(8) c: 13.5290(4) alpha: 90. beta: 90. gamma: 90. volume: 482.43(5) crystal system: orthorhombic
x	intensity
5	0
5.22	12.2491
5.44	0.053267
5.66	4.39187
5.88	6.23937
6.1	11.3514
6.32	13.7613
6.54	11.0219
6.76	0.857027
6.98	12.9884
7.2	6.10719
7.42	9.25691
7.64	9.02164
7.86	8.79119
8.08	13.5107
8.3	0.818016
8.52	5.70311
8.74	6.19142
8.96	7.63155
9.18	11.1314
9.4	14.1418
9.62	6.32148
9.84	2.19995
10.06	3.75124
10.28	5.03961
10.5	2.33786
10.72	2.38064
10.94	3.88105
11.16	0.364569
11.38	2.56763
11.6	5.59954
11.82	2.59874
12.04	0.545088
12.26	2.36124
12.48	7.26112
12.7	1.19746
12.92	7.30265
13.14	151.383
13.36	6.51276
13.58	3.26549
13.8	4.41326
14.02	2.45074
14.24	0.592506
14.46	1.72809
14.68	3.80962
14.9	2.91028
15.12	0.086429
15.34	3.1886
15.56	1.31177
15.78	2.29926
16	0.339656
16.22	5.75802
16.44	4.81308
16.66	4.87105
16.88	6.93411
17.1	1.08136
17.32	4.24105
17.54	60.312
17.76	6.40653
17.98	4.43889
18.2	6.44607
18.42	5.41909
18.64	6.49851
18.86	3.58258
19.08	3.6677
19.3	4.74196
19.52	0.750106
19.74	11.7567
19.96	0.382583
20.18	5.77253
20.4	2.76723
20.62	3.9745
20.84	5.98201
21.06	0.83583
21.28	2.74445
21.5	4.65314
21.72	1.55791
21.94	3.46377
22.16	7.33185
22.38	15.2865
22.6	11.0939
22.82	5.3187
23.04	2.0249
23.26	7.20747
23.48	3.29519
23.7	5.39125
23.92	3.54536
24.14	10.7007
24.36	5.96372
24.58	1.05957
24.8	1.10095
25.02	3.92776
25.24	2.59261
25.46	0.442575
25.68	2.07195
25.9	3.85605
26.12	36.8339
26.34	10.7505
26.56	11.3275
26.78	58.005
27	3.14456
27.22	0.171851
27.44	0.110029
27.66	40.0595
27.88	2.0623
28.1	2.88661
28.32	0.139431
28.54	5.01627
28.76	23.0809
28.98	164.204
29.2	10.4461
29.42	1.23455
29.64	6.42838
29.86	2.59743
30.08	11.9006
30.3	0.851169
30.52	5.3069
30.74	0.64331
30.96	5.66229
31.18	0.287655
31.4	0.22254
31.62	1.65163
31.84	6.51452
32.06	3.37228
32.28	1.28653
32.5	4.18595
32.72	8.09699
32.94	42.1045
33.16	18.0451
33.38	2.19408
33.6	4.30525
33.82	2.3375
34.04	2.43251
34.26	0.526466
34.48	4.63968
34.7	8.95504
34.92	20.0162
35.14	5.12486
35.36	9.13437
35.58	7.2808
35.8	1.21714
36.02	4.26899
36.24	2.39206
36.46	4.53003
36.68	4.60065
36.9	1.54417
37.12	2.49823
37.34	0.466497
37.56	7.43612
37.78	8.38248
38	2.17319
38.22	1.07692
38.44	2.94857
38.66	8.13713
38.88	3.96668
39.1	3.82598
39.32	2.59476
39.54	2.33844
39.76	1.04542
39.98	0.941686
40.2	9.71418
40.42	11.582
40.64	22.3059
40.86	3.918
41.08	2.164
41.3	3.60504
41.52	5.59486
41.74	50.6173
41.96	20.8342
42.18	5.08968
42.4	10.2834
42.62	11.6093
42.84	5.79347
43.06	6.02726
43.28	0.799703
43.5	2.05303
43.72	9.14274
43.94	1.24947
44.16	1.53282
44.38	13.4477
44.6	3.38423
44.82	23.1676
45.04	3.33635
45.26	4.44143
45.48	5.63392
45.7	3.88175
45.92	2.03927
46.14	3.27712
46.36	5.32094
46.58	3.23014
46.8	5.29734
47.02	1.3795
47.24	2.5607
47.46	7.43067
47.68	5.35557
47.9	11.2482
48.12	2.02737
48.34	3.902
48.56	2.92722
48.78	4.02159
49	6.06952
49.22	10.1253
49.44	6.08613
49.66	1.00433
49.88	6.96584
50.1	0.008449
50.32	3.11793
50.54	5.23432
50.76	6.2901
50.98	40.291
51.2	10.3002
51.42	1.24204
51.64	3.1548
51.86	0.050359
52.08	1.01578
52.3	4.31359
52.52	3.23426
52.74	8.93691
52.96	4.82604
53.18	0.726135
53.4	0.554056
53.62	1.64606
53.84	2.6324
54.06	7.67727
54.28	51.7638
54.5	6.68512
54.72	3.44301
54.94	3.64331
55.16	1.7851
55.38	7.92194
55.6	9.06209
55.82	14.0892
56.04	1.01055
56.26	3.2954
56.48	0.18846
56.7	2.13491
56.92	2.02065
57.14	3.88497
57.36	0.431787
57.58	5.29056
57.8	0.053888
58.02	16.8595
58.24	8.6955
58.46	8.33893
58.68	1.1487
58.9	1.21172
59.12	0.29132
59.34	7.42734
59.56	12.6083
59.78	4.00373
60	0.608184
60.22	1.93263
60.44	5.24661
60.66	1.52415
60.88	0.762163
61.1	1.92492
61.32	2.01723
61.54	0.957604
61.76	0.924126
61.98	2.99338
62.2	0.80061
62.42	0.34172
62.64	5.18625
62.86	4.91878
63.08	3.80146
63.3	11.7396
63.52	10.5952
63.74	5.76536
63.96	5.95498
64.18	4.05019
64.4	2.93424
64.62	1.04205
64.84	0.916503
65.06	2.04544
65.28	0.996342
65.5	0.880501
65.72	1.84298
65.94	0.80263
66.16	4.40923
66.38	6.51634
66.6	2.50277
66.82	2.67784
67.04	6.6805
67.26	7.01579
67.48	0.101254
67.7	4.17713
67.92	6.242
68.14	2.41716
68.36	1.43718
68.58	2.39878
68.8	8.25729
69.02	7.16926
69.24	4.99658
69.46	8.89679
69.68	5.56558
69.9	10.5409
70.12	2.54829
70.34	6.53051
70.56	2.4676
70.78	6.5381
71	2.7446
71.22	1.76268
71.44	3.96203
71.66	2.95783
71.88	2.85248
72.1	1.03022
72.32	0.995332
72.54	0.074591
72.76	5.02127
72.98	5.88691
73.2	3.77815
73.42	1.54749
73.64	1.41927
73.86	3.32206
74.08	21.3684
74.3	27.5254
74.52	6.43537
74.74	9.58365
74.96	5.76735
75.18	5.72443
75.4	2.91379
75.62	5.08803
75.84	6.19332
76.06	2.42217
76.28	6.49812
76.5	0.550547
76.72	3.44384
76.94	2.52727
77.16	0.437754
77.38	1.64543
77.6	8.74067
77.82	8.76736
78.04	7.71803
78.26	3.6555
78.48	3.61782
78.7	4.54516
78.92	0.541076
79.14	1.37931
79.36	5.27333
79.58	2.19989
79.8	2.96544
80.02	3.79894
80.24	1.80513
80.46	5.8094
80.68	0.886046
80.9	8.12626
81.12	4.15691
81.34	4.20373
81.56	1.32796
81.78	0.359298
82	0.250974
82.22	1.25348
82.44	6.26298
82.66	3.12191
82.88	4.12383
83.1	2.96863
83.32	5.12541
83.54	3.27607
83.76	9.34152
83.98	0.26798
84.2	2.33828
84.42	0.36101
84.64	1.41838
84.86	1.52221
85.08	2.47822
85.3	3.32667
85.52	3.31809
85.74	0.098785
85.96	0.095126
86.18	3.80212
86.4	6.72986
86.62	0.65901
86.84	7.75234
87.06	4.82204
87.28	0.699791
87.5	1.73188
87.72	1.84749
87.94	0.812561
88.16	0.89763
88.38	4.01594
88.6	3.14884
88.82	5.33184
89.04	0.282471
89.26	3.43956
89.48	0.380013
89.7	0.778744
89.92	3.18175
