Measurement: Powder, Xray Data XY Processed
Mineral: Sapphirine
Rruff sample: R060073
Ideal chemistry: Mg_4_(Mg_3_Al_9_)O_4_[Si_3_Al_9_O_36_]
Locality: Androy, Madagascar
Source: Marcus Origlieri
Description: Dark blue massive
Diffraction sample description: Powder
Measured chemistry: Mg_4_(Mg_3.32_Al_8.34_Fe^2+^_0.42_)O_4_(Si_3.5_Al_8.5_O_36_)
Cell parameters: a: 11.2865(7) b: 14.4375(6) c: 9.9561(5) alpha: 90 beta: 125.439(4) gamma: 90 volume: 1321.77(9) crystal system: monoclinic
x	intensity
5	0
5.22	17.4
5.44	3.252
5.66	6.414
5.88	20.412
6.1	3.429
6.32	12.666
6.54	10.088
6.76	10.292
6.98	3.78
7.2	14.324
7.42	6.749
7.64	11.678
7.86	12.207
8.08	13.11
8.3	8.808
8.52	4.387
8.74	5.881
8.96	7.951
9.18	11.587
9.4	0.553
9.62	6.12
9.84	2.936
10.06	10.123
10.28	5.712
10.5	8.192
10.72	7.039
10.94	12.838
11.16	6.777
11.38	7.049
11.6	5.004
11.82	7.221
12.04	9.639
12.26	1.542
12.48	6.548
12.7	10.812
12.92	12.605
13.14	4.708
13.36	11.953
13.58	4.017
13.8	10.207
14.02	6.522
14.24	7.705
14.46	12.655
14.68	9.757
14.9	7.829
15.12	0.023
15.34	7.079
15.56	12.179
15.78	5.475
16	0.031
16.22	9.903
16.44	8.805
16.66	10.624
16.88	4.625
17.1	11.822
17.32	0.828
17.54	3.719
17.76	2.702
17.98	6.641
18.2	1.329
18.42	9.003
18.64	5.867
18.86	1.899
19.08	4.023
19.3	6.956
19.52	9.064
19.74	3.053
19.96	5.07
20.18	2.662
20.4	5.628
20.62	5.689
20.84	7.62
21.06	7.553
21.28	6.444
21.5	11.413
21.72	0.618
21.94	32.077
22.16	0.071
22.38	3.011
22.6	5.998
22.82	6.447
23.04	3.463
23.26	12.599
23.48	11.62
23.7	7.565
23.92	4.392
24.14	6.508
24.36	9.379
24.58	2.284
24.8	19.891
25.02	4.967
25.24	4.739
25.46	8.692
25.68	10.65
25.9	9.567
26.12	5.492
26.34	9.463
26.56	1.732
26.78	4.551
27	13.418
27.22	20.281
27.44	4.746
27.66	20.701
27.88	2.383
28.1	10.206
28.32	9.471
28.54	2.562
28.76	1.411
28.98	5.25
29.2	5.922
29.42	1.935
29.64	3.112
29.86	214.973
30.08	14.866
30.3	1.827
30.52	0.203
30.74	8.565
30.96	9.908
31.18	12.856
31.4	58.999
31.62	91.83
31.84	4.748
32.06	2.644
32.28	14.52
32.5	18.561
32.72	6.208
32.94	8.821
33.16	25.343
33.38	3.339
33.6	2.888
33.82	18.28
34.04	3.932
34.26	2.434
34.48	21.587
34.7	18.858
34.92	39.248
35.14	7.178
35.36	5.497
35.58	13.378
35.8	13.411
36.02	1.514
36.24	8.748
36.46	8.746
36.68	201.713
36.9	31.885
37.12	0.089
37.34	9.229
37.56	0.533
37.78	48.508
38	6.077
38.22	25.775
38.44	18.562
38.66	23.239
38.88	16.302
39.1	4.871
39.32	2.192
39.54	0.239
39.76	8.413
39.98	6.361
40.2	7.493
40.42	5.461
40.64	10.253
40.86	5.924
41.08	6.424
41.3	4.735
41.52	4.426
41.74	2.226
41.96	7.359
42.18	5.184
42.4	24.346
42.62	11.168
42.84	3.065
43.06	16.025
43.28	9.102
43.5	19.038
43.72	39.99
43.94	4.977
44.16	4.987
44.38	0.286
44.6	1.765
44.82	56.937
45.04	84.121
45.26	14.091
45.48	13.045
45.7	4.929
45.92	1.364
46.14	6.827
46.36	11.954
46.58	10.024
46.8	3.968
47.02	13.027
47.24	11.23
47.46	6.404
47.68	2.822
47.9	22.084
48.12	31.581
48.34	11.815
48.56	3.68
48.78	8.939
49	4.972
49.22	1.044
49.44	16.231
49.66	8.457
49.88	9.276
50.1	1.026
50.32	4.804
50.54	9.708
50.76	6.269
50.98	12.117
51.2	10.257
51.42	4.077
51.64	4.263
51.86	12.206
52.08	9.795
52.3	2.801
52.52	7.853
52.74	14.873
52.96	7.762
53.18	8.74
53.4	5.25
53.62	8.935
53.84	0.022
54.06	8.807
54.28	7.803
54.5	1.866
54.72	12.089
54.94	7.094
55.16	12.017
55.38	10.939
55.6	2.719
55.82	3.348
56.04	15.339
56.26	8.228
56.48	2.137
56.7	16.85
56.92	7.524
57.14	0.487
57.36	7.349
57.58	14.282
57.8	15.563
58.02	5.924
58.24	4.649
58.46	11.382
58.68	5.086
58.9	1.929
59.12	3.719
59.34	8.297
59.56	46.211
59.78	24.422
60	51.441
60.22	9.811
60.44	17.406
60.66	5.934
60.88	0.586
61.1	0.309
61.32	1.002
61.54	0.306
61.76	3.59
61.98	10.078
62.2	8.3
62.42	13.54
62.64	5.346
62.86	19.297
63.08	0.998
63.3	13.701
63.52	5.193
63.74	13.595
63.96	15.969
64.18	6.381
64.4	5.351
64.62	22.129
64.84	98.509
65.06	19.963
65.28	6.958
65.5	2.573
65.72	71.51
65.94	7.406
66.16	6.502
66.38	14.259
66.6	6.704
66.82	3.472
67.04	5.139
67.26	0.721
67.48	2.197
67.7	14.877
67.92	9.424
68.14	8.367
68.36	13.298
68.58	13.008
68.8	6.877
69.02	1.019
69.24	21.217
69.46	6.525
69.68	7.93
69.9	4.943
70.12	4.117
70.34	3.343
70.56	4.678
70.78	3.624
71	6.539
71.22	6.631
71.44	2.329
71.66	5.625
71.88	9.914
72.1	7.058
72.32	11.952
72.54	16.383
72.76	9.24
72.98	5.154
73.2	4.17
73.42	7.106
73.64	2.205
73.86	8.269
74.08	4.195
74.3	9.087
74.52	17.986
74.74	9.891
74.96	7.452
75.18	5.257
75.4	8.123
75.62	3.002
75.84	8.85
76.06	2.569
76.28	4.501
76.5	4.651
76.72	7.356
76.94	7.462
77.16	10.682
77.38	0.196
77.6	14.863
77.82	8.852
78.04	0.012
78.26	5.117
78.48	8.163
78.7	8.235
78.92	5.151
79.14	11.047
79.36	4.854
79.58	14.102
79.8	1.987
80.02	0.943
80.24	8.06
80.46	4.213
80.68	10.196
80.9	4.274
81.12	9.14
81.34	2.04
81.56	4.869
81.78	0.75
82	3.194
82.22	15.211
82.44	5.159
82.66	5.122
82.88	1.878
83.1	13.849
83.32	11.997
83.54	5.088
83.76	11.206
83.98	7.316
84.2	11.4
84.42	2.755
84.64	2.82
84.86	7.943
85.08	6.219
85.3	5.514
85.52	7.918
85.74	6.734
85.96	4.816
86.18	0.812
86.4	7.712
86.62	2.838
86.84	8.565
87.06	12.399
87.28	4.151
87.5	5.841
87.72	8.434
87.94	7.155
88.16	10.088
88.38	8.946
88.6	15.033
88.82	1.081
89.04	5.228
89.26	4.502
89.48	13.966
89.7	2.548
89.92	7.113
