Measurement: Powder, Xray Data XY Processed
Mineral: Sarabauite
Rruff sample: R060495
Ideal chemistry: CaSb^3+^_10_O_10_S^2-^_6_
Locality: Sarabau mine, near Bau, Sarawak, Borneo (Malaysia)
Source: Michael Scott
Description: Red tabular crystals associated with white wollastonite
Diffraction sample description: Single crystal, powder profile is calculated
Measured chemistry: Ca_1.00_Sb^3+^_10.00_O_10_S_6.00_
Cell parameters: a: 25.35(1) b: 5.661(3) c: 16.900(9) alpha: 90 beta: 117.62(1) gamma: 90 volume: 2149(5) crystal system: monoclinic
x	intensity
5	0
5.22	0
5.44	0
5.66	0
5.88	0
6.1	0
6.32	0
6.54	0
6.76	0
6.98	0
7.2	0
7.42	0
7.64	0
7.86	41.29
8.08	0
8.3	0
8.52	0
8.74	0
8.96	0
9.18	0
9.4	0
9.62	0
9.84	0
10.06	0
10.28	0
10.5	0
10.72	5.94
10.94	0
11.16	0
11.38	0
11.6	0
11.82	4.059
12.04	0
12.26	0
12.48	0
12.7	0
12.92	0
13.14	0
13.36	0
13.58	0
13.8	0
14.02	0
14.24	0
14.46	0
14.68	2.982
14.9	0
15.12	0
15.34	0
15.56	0
15.78	0.988
16	0
16.22	0.474
16.44	0
16.66	0
16.88	0
17.1	0.001
17.32	0
17.54	0
17.76	0.191
17.98	0.003
18.2	0
18.42	0
18.64	0
18.86	0.442
19.08	0
19.3	0
19.52	0
19.74	0.245
19.96	36.398
20.18	0
20.4	0
20.62	0
20.84	0
21.06	17.694
21.28	1.547
21.5	0.015
21.72	0.051
21.94	0
22.16	0.151
22.38	0
22.6	8.109
22.82	1.004
23.04	0
23.26	0
23.48	0
23.7	6.188
23.92	0.068
24.14	0
24.36	0
24.58	0.092
24.8	0
25.02	0.002
25.24	0.282
25.46	3.484
25.68	27.621
25.9	0.018
26.12	0
26.34	8.773
26.56	0
26.78	0
27	0
27.22	0.062
27.44	0.014
27.66	0.007
27.88	41.028
28.1	20.432
28.32	16.294
28.54	0.256
28.76	0
28.98	0
29.2	0.742
29.42	0.044
29.64	1.154
29.86	0.009
30.08	3.192
30.3	0.052
30.52	0.26
30.74	0
30.96	0.257
31.18	0.094
31.4	5.983
31.62	12.952
31.84	40.038
32.06	6.994
32.28	3.262
32.5	15.458
32.72	1.93
32.94	7.63
33.16	0.285
33.38	0
33.6	0
33.82	0.567
34.04	2.911
34.26	0.003
34.48	5.925
34.7	14.768
34.92	1.762
35.14	2.477
35.36	1.603
35.58	2.099
35.8	5.38
36.02	8.854
36.24	1.599
36.46	0.158
36.68	0
36.9	0
37.12	0.01
37.34	0.068
37.56	1.372
37.78	0.001
38	0.893
38.22	1.964
38.44	1.147
38.66	4.423
38.88	0.501
39.1	0.026
39.32	0.89
39.54	2.525
39.76	0.118
39.98	0.655
40.2	0.66
40.42	0.02
40.64	0.23
40.86	0.002
41.08	0.573
41.3	0.828
41.52	0.409
41.74	0.641
41.96	0
42.18	0.217
42.4	1.095
42.62	0.691
42.84	1.611
43.06	3.689
43.28	0.25
43.5	0.125
43.72	0.01
43.94	0.821
44.16	11.253
44.38	0
44.6	0
44.82	1.826
45.04	0.288
45.26	1.953
45.48	2.263
45.7	0.171
45.92	1.433
46.14	1.401
46.36	7.003
46.58	8.379
46.8	0.387
47.02	0
47.24	7.343
47.46	1.341
47.68	0
47.9	2.296
48.12	9.913
48.34	2.23
48.56	0.693
48.78	6.141
49	0.021
49.22	0.212
49.44	0.298
49.66	4.827
49.88	11.032
50.1	1.126
50.32	1.093
50.54	4.838
50.76	0.027
50.98	4.353
51.2	4.474
51.42	5.385
51.64	1.202
51.86	0.479
52.08	2.76
52.3	2.917
52.52	0.554
52.74	0.968
52.96	0.9
53.18	2.432
53.4	0.305
53.62	0.028
53.84	0.717
54.06	0.29
54.28	5.718
54.5	0.725
54.72	0.711
54.94	2.758
55.16	2.724
55.38	1.2
55.6	0.243
55.82	0.361
56.04	0.682
56.26	1.504
56.48	0.282
56.7	1.407
56.92	4.983
57.14	0.412
57.36	0.599
57.58	6.412
57.8	1.944
58.02	1.015
58.24	0.128
58.46	5.906
58.68	1.455
58.9	0.683
59.12	0.964
59.34	1.645
59.56	0.86
59.78	0.044
60	0.432
60.22	0.201
60.44	2.027
60.66	3.778
60.88	2.634
61.1	0.418
61.32	0.71
61.54	0.649
61.76	0.634
61.98	0.597
62.2	0.872
62.42	0.283
62.64	3.253
62.86	0.967
63.08	0.119
63.3	0.33
63.52	0.018
63.74	0.067
63.96	0.197
64.18	0.61
64.4	2.921
64.62	1.043
64.84	0.097
65.06	0.617
65.28	0.684
65.5	0.06
65.72	0.093
65.94	0.487
66.16	0.487
66.38	1.912
66.6	1.434
66.82	1.11
67.04	0.433
67.26	2.024
67.48	1.674
67.7	1.504
67.92	1.657
68.14	1.054
68.36	0.624
68.58	0.29
68.8	0.486
69.02	0.405
69.24	1.252
69.46	0.861
69.68	0.332
69.9	0.091
70.12	4.473
70.34	3.566
70.56	1.088
70.78	0.978
71	1.714
71.22	1.337
71.44	0.82
71.66	0.713
71.88	1.738
72.1	1.607
72.32	1.32
72.54	0.61
72.76	0.327
72.98	0.241
73.2	0.086
73.42	1.039
73.64	0.6
73.86	0.085
74.08	0.408
74.3	0.648
74.52	0.992
74.74	2.559
74.96	1.772
75.18	1.838
75.4	1.867
75.62	0.859
75.84	1.274
76.06	1.015
76.28	0.737
76.5	0.624
76.72	0.738
76.94	0.447
77.16	1.502
77.38	0.679
77.6	0.08
77.82	0.485
78.04	0.39
78.26	0.071
78.48	0.278
78.7	0.908
78.92	0.564
79.14	0.363
79.36	0.568
79.58	0.252
79.8	0.48
80.02	0.159
80.24	0.037
80.46	0.452
80.68	0.418
80.9	0.409
81.12	0.217
81.34	0.065
81.56	0.325
81.78	0.376
82	1.08
82.22	0.887
82.44	0.268
82.66	0.911
82.88	0.975
83.1	0.653
83.32	0.028
83.54	0.1
83.76	0.271
83.98	0.589
84.2	0.436
84.42	0.473
84.64	0.6
84.86	0.285
85.08	0.766
85.3	1.188
85.52	0.323
85.74	0.341
85.96	0.357
86.18	0.212
86.4	0.271
86.62	0.125
86.84	0.168
87.06	0.479
87.28	0.28
87.5	0.307
87.72	0.049
87.94	1.445
88.16	0.571
88.38	0.268
88.6	0.611
88.82	0.301
89.04	0.052
89.26	0.299
89.48	0.122
89.7	0.446
89.92	0.039
