Measurement: Powder, Xray Data XY Processed
Mineral: Scheelite
Rruff sample: R060417
Ideal chemistry: CaW^6+^O_4_
Locality: Karmang Valley, near Khapalu, Baltistan, Pakistan
Source: Herb Obodda
Description: Orange-yellow fragment
Diffraction sample description: Powder
Measured chemistry: Ca_1.00_W_1.00_O_4_
Cell parameters: a: 5.24429(6) b: 5.24429(6) c: 11.3759(2) alpha: 90 beta: 90 gamma: 90 volume: 312.867(8) crystal system: tetragonal
x	intensity
5	0
5.22	1.60379
5.44	8.19336
5.66	15.8027
5.88	18.8099
6.1	17.533
6.32	17.8748
6.54	21.3576
6.76	26.8583
6.98	8.44006
7.2	7.40699
7.42	7.18403
7.64	6.1767
7.86	2.77403
8.08	4.47803
8.3	8.49725
8.52	3.49776
8.74	4.78075
8.96	3.6513
9.18	0.499008
9.4	4.66885
9.62	1.50725
9.84	3.04243
10.06	16.7037
10.28	8.60777
10.5	10.5295
10.72	9.89857
10.94	0.295504
11.16	7.81689
11.38	7.8158
11.6	8.89488
11.82	10.8594
12.04	13.7814
12.26	11.2474
12.48	12.6266
12.7	1.09271
12.92	3.27177
13.14	4.5895
13.36	6.2012
13.58	3.37317
13.8	2.09059
14.02	11.4587
14.24	6.74236
14.46	8.96702
14.68	2.95984
14.9	14.8884
15.12	9.86433
15.34	9.78622
15.56	8.57858
15.78	5.32476
16	3.11935
16.22	3.5312
16.44	6.35584
16.66	12.1534
16.88	15.7783
17.1	12.3427
17.32	1.91085
17.54	6.13521
17.76	2.74168
17.98	8.35901
18.2	7.85615
18.42	33.9002
18.64	1740.58
18.86	46.4128
19.08	12.4369
19.3	6.36408
19.52	6.86726
19.74	3.28735
19.96	0.119353
20.18	10.3368
20.4	4.97668
20.62	0.376108
20.84	7.82672
21.06	12.3038
21.28	6.12408
21.5	6.64896
21.72	5.01813
21.94	12.1649
22.16	3.27382
22.38	5.40648
22.6	7.4959
22.82	1.40363
23.04	9.53061
23.26	6.34394
23.48	7.44889
23.7	3.95569
23.92	6.90802
24.14	11.7544
24.36	4.96973
24.58	9.91579
24.8	4.63087
25.02	11.5375
25.24	5.38654
25.46	6.50792
25.68	8.40591
25.9	48.1755
26.12	11.2356
26.34	5.37041
26.56	5.11783
26.78	3.0289
27	7.29031
27.22	0.338619
27.44	0.740627
27.66	7.89999
27.88	13.6802
28.1	10.6302
28.32	27.2486
28.54	90.0153
28.76	1916.39
28.98	172.399
29.2	111.111
29.42	25.4441
29.64	10.1295
29.86	11.6465
30.08	5.70468
30.3	0.971786
30.52	13.6131
30.74	8.20375
30.96	17.1127
31.18	8.65892
31.4	143.031
31.62	51.0972
31.84	1.40929
32.06	6.48406
32.28	14.2353
32.5	4.73187
32.72	0.040555
32.94	7.15657
33.16	5.34651
33.38	11.1384
33.6	12.8599
33.82	8.0371
34.04	50.836
34.26	246.911
34.48	11.3043
34.7	9.12045
34.92	5.1756
35.14	3.61542
35.36	9.05937
35.58	5.43109
35.8	8.03539
36.02	8.80572
36.24	9.55794
36.46	0.800698
36.68	3.69272
36.9	5.66466
37.12	11.8195
37.34	8.59868
37.56	13.28
37.78	15.7405
38	17.2345
38.22	1.52365
38.44	2.67851
38.66	4.31816
38.88	9.85006
39.1	44.586
39.32	202.205
39.54	14.4644
39.76	14.6911
39.98	27.8205
40.2	6.18447
40.42	5.75875
40.64	2.31314
40.86	7.86077
41.08	1.436
41.3	10.6626
41.52	7.85977
41.74	1.31763
41.96	6.21116
42.18	8.07651
42.4	14.9753
42.62	4.91191
42.84	3.76495
43.06	1.50655
43.28	36.1954
43.5	25.2564
43.72	2.67166
43.94	3.95072
44.16	0.670233
44.38	5.36218
44.6	0.804361
44.82	9.32508
45.04	2.08995
45.26	15.8876
45.48	175.311
45.7	12.7094
45.92	9.79489
46.14	9.94401
46.36	0.25968
46.58	6.899
46.8	18.7008
47.02	110.926
47.24	394.146
47.46	42.4578
47.68	7.33232
47.9	12.7037
48.12	3.16379
48.34	6.38071
48.56	1.06114
48.78	7.68302
49	34.8041
49.22	118.496
49.44	10.4484
49.66	6.77581
49.88	0.958502
50.1	5.49846
50.32	5.8741
50.54	11.0479
50.76	8.13583
50.98	10.1923
51.2	3.29033
51.42	2.72974
51.64	3.55807
51.86	14.1919
52.08	5.63397
52.3	5.21768
52.52	2.85179
52.74	4.36811
52.96	53.9986
53.18	16.7355
53.4	3.35312
53.62	0.066521
53.84	8.82158
54.06	10.754
54.28	183.596
54.5	131.75
54.72	9.85402
54.94	8.73045
55.16	1.70385
55.38	3.27422
55.6	6.88177
55.82	3.69379
56.04	4.65453
56.26	85.6064
56.48	87.9538
56.7	0.123435
56.92	0.320333
57.14	3.81475
57.36	3.54189
57.58	9.68716
57.8	113.707
58.02	224.254
58.24	51.9826
58.46	11.859
58.68	0.248018
58.9	9.16454
59.12	6.69357
59.34	26.1009
59.56	88.936
59.78	21.4909
60	11.6784
60.22	9.57856
60.44	12.3555
60.66	0.681105
60.88	4.96381
61.1	6.50529
61.32	8.81077
61.54	4.34383
61.76	5.8806
61.98	8.73117
62.2	2.81531
62.42	3.90145
62.64	6.57383
62.86	9.97538
63.08	2.45173
63.3	3.14562
63.52	6.85242
63.74	4.54891
63.96	4.83979
64.18	5.48566
64.4	3.21373
64.62	29.7813
64.84	23.5165
65.06	10.4309
65.28	0.001065
65.5	9.22969
65.72	14.73
65.94	2.19168
66.16	1.35691
66.38	3.56012
66.6	8.63123
66.82	7.8793
67.04	9.10971
67.26	5.25937
67.48	11.5567
67.7	27.308
67.92	14.0939
68.14	0.418618
68.36	0.793138
68.58	1.43982
68.8	2.35539
69.02	10.355
69.24	21.2917
69.46	11.1258
69.68	1.10895
69.9	0.029301
70.12	3.03795
70.34	7.31747
70.56	20.4315
70.78	11.4955
71	0.217227
71.22	6.23932
71.44	4.53322
71.66	3.81827
71.88	12.9033
72.1	17.895
72.32	11.8836
72.54	4.45683
72.76	3.74846
72.98	5.46336
73.2	5.65198
73.42	8.80063
73.64	9.55745
73.86	2.17688
74.08	7.45652
74.3	1.00869
74.52	5.85196
74.74	7.9569
74.96	13.99
75.18	8.39995
75.4	9.57653
75.62	6.845
75.84	18.4529
76.06	80.226
76.28	137.726
76.5	74.8181
76.72	7.97726
76.94	5.89762
77.16	5.64336
77.38	9.52009
77.6	9.34166
77.82	17.7802
78.04	11.1837
78.26	4.28357
78.48	7.03398
78.7	9.00089
78.92	1.09375
79.14	24.7491
79.36	41.7191
79.58	19.2921
79.8	11.7989
80.02	0.328168
80.24	4.22601
80.46	13.7116
80.68	74.7101
80.9	59.7472
81.12	10.747
81.34	0.549526
81.56	6.50856
81.78	8.99723
82	19.5501
82.22	33.1068
82.44	24.73
82.66	14.3101
82.88	4.19093
83.1	3.67744
83.32	2.99617
83.54	6.41917
83.76	2.74381
83.98	1.80922
84.2	13.6215
84.42	6.54981
84.64	0.407432
84.86	7.9369
85.08	3.49419
85.3	2.02921
85.52	7.76751
85.74	7.66875
85.96	10.3482
86.18	26.2554
86.4	38.1909
86.62	8.14803
86.84	5.98589
87.06	0.964628
87.28	9.29909
87.5	10.7539
87.72	17.2552
87.94	22.729
88.16	17.9056
88.38	13.3988
88.6	0.687361
88.82	4.82597
89.04	10.3923
89.26	8.76168
89.48	11.6058
89.7	13.8132
89.92	3.88979
