Measurement: Powder, Xray Data XY Processed
Mineral: Schneiderhohnite
Rruff sample: R050215
Ideal chemistry: Fe^2+^Fe^3+^_3_As^3+^_5_O_13_
Locality: Tsumeb mine, Tsumeb, Otavi District, Oshikoto, Namibia
Source: Marcus Origlieri
Description: Dark brown flattened single crystal
Diffraction sample description: Single crystal, powder profile is calculated
Cell parameters: a: 8.915(8) b: 10.005(9) c: 9.088(11) alpha: 59.93(3) beta: 112.43(3) gamma: 81.69(3) volume: 588.6(1.0) crystal system: triclinic
x	intensity
5	0
5.22	0
5.44	0
5.66	0
5.88	0
6.1	0
6.32	0
6.54	0
6.76	0
6.98	0
7.2	0
7.42	0
7.64	0
7.86	0
8.08	0
8.3	0
8.52	0
8.74	0
8.96	0
9.18	0
9.4	0
9.62	0
9.84	0
10.06	0
10.28	0
10.5	0
10.72	0
10.94	1.735
11.16	0.026
11.38	0.002
11.6	0
11.82	6.594
12.04	0
12.26	67.394
12.48	1.186
12.7	0
12.92	0
13.14	0
13.36	0.013
13.58	0
13.8	0
14.02	0
14.24	0
14.46	0.016
14.68	0
14.9	0
15.12	0
15.34	0
15.56	0
15.78	0
16	0
16.22	0
16.44	0
16.66	0
16.88	0
17.1	0
17.32	0
17.54	0
17.76	1.703
17.98	0.167
18.2	0
18.42	0
18.64	2.446
18.86	0
19.08	0
19.3	0
19.52	0.58
19.74	8.811
19.96	0
20.18	1.507
20.4	0
20.62	0.521
20.84	0
21.06	0
21.28	0
21.5	0.283
21.72	0.736
21.94	0.003
22.16	1.984
22.38	0
22.6	3.515
22.82	26.854
23.04	0
23.26	0
23.48	0
23.7	0.698
23.92	0.074
24.14	0.246
24.36	2.653
24.58	28.616
24.8	0
25.02	0.295
25.24	0
25.46	0
25.68	0
25.9	0
26.12	0
26.34	0
26.56	0
26.78	22.345
27	0
27.22	3.604
27.44	1.241
27.66	0.183
27.88	10.794
28.1	4.156
28.32	4.286
28.54	18.138
28.76	0
28.98	11.518
29.2	0.03
29.42	0
29.64	7.005
29.86	3.981
30.08	2.943
30.3	45.185
30.52	5.29
30.74	2.125
30.96	38.791
31.18	4.47
31.4	1.555
31.62	0
31.84	53.725
32.06	0.398
32.28	0.037
32.5	1.265
32.72	34.958
32.94	0.205
33.16	2.258
33.38	7.025
33.6	5.381
33.82	0.696
34.04	0.281
34.26	15.931
34.48	0.014
34.7	3.661
34.92	0.241
35.14	0.112
35.36	5.756
35.58	0.039
35.8	0
36.02	1.193
36.24	0.801
36.46	0.014
36.68	12.565
36.9	26.835
37.12	3.524
37.34	6.738
37.56	0
37.78	0
38	0.518
38.22	5.77
38.44	2.233
38.66	0.07
38.88	0.044
39.1	13.947
39.32	0.002
39.54	0.166
39.76	10.595
39.98	3.29
40.2	0.246
40.42	4.479
40.64	1.196
40.86	9.116
41.08	6.769
41.3	0
41.52	0.007
41.74	4.627
41.96	2.45
42.18	0.061
42.4	1.744
42.62	0.005
42.84	0.344
43.06	6.645
43.28	0.071
43.5	2.364
43.72	2.013
43.94	0.316
44.16	1.823
44.38	0.127
44.6	0.384
44.82	1.353
45.04	0.564
45.26	3.02
45.48	0.969
45.7	0.172
45.92	0.079
46.14	2.389
46.36	5.235
46.58	0.942
46.8	0.689
47.02	0.382
47.24	3.261
47.46	0.213
47.68	1.891
47.9	0.386
48.12	1.158
48.34	0.718
48.56	0.519
48.78	1.924
49	3.541
49.22	0.527
49.44	3.42
49.66	1.933
49.88	1.818
50.1	0.791
50.32	1.45
50.54	1.729
50.76	0.15
50.98	1.414
51.2	0.237
51.42	0.67
51.64	2.17
51.86	0.452
52.08	3.284
52.3	1.41
52.52	4.139
52.74	5.326
52.96	1.428
53.18	1.448
53.4	0.209
53.62	0.994
53.84	1.81
54.06	0.761
54.28	2.427
54.5	2.927
54.72	9.271
54.94	1.716
55.16	1.446
55.38	3.532
55.6	0.75
55.82	2.673
56.04	2.265
56.26	2.839
56.48	0.935
56.7	6.843
56.92	1.684
57.14	3.677
57.36	6.535
57.58	2.203
57.8	6.294
58.02	10.936
58.24	4.318
58.46	0.18
58.68	2.516
58.9	2.731
59.12	0.121
59.34	0
59.56	0.082
59.78	0.811
60	4.262
60.22	1.112
60.44	0.573
60.66	1.347
60.88	0.968
61.1	1.078
61.32	0.295
61.54	2.82
61.76	3.096
61.98	1.087
62.2	1.772
62.42	0.737
62.64	4.411
62.86	3.03
63.08	4.649
63.3	3.617
63.52	0.83
63.74	5.26
63.96	2.771
64.18	0.023
64.4	3.397
64.62	1.711
64.84	3.527
65.06	1.187
65.28	7.793
65.5	5.421
65.72	2.597
65.94	0.806
66.16	4.615
66.38	2.246
66.6	1.433
66.82	1.116
67.04	1.718
67.26	2.696
67.48	0.299
67.7	0.059
67.92	2.018
68.14	1.212
68.36	0.826
68.58	1.923
68.8	1.026
69.02	0.533
69.24	0.804
69.46	1.68
69.68	0.51
69.9	1.262
70.12	1.173
70.34	1.153
70.56	0.519
70.78	0.528
71	0.789
71.22	1.284
71.44	1.972
71.66	0.993
71.88	1.064
72.1	0.297
72.32	0.308
72.54	0.22
72.76	0.745
72.98	0.228
73.2	0.072
73.42	1.124
73.64	1.179
73.86	0.338
74.08	0.012
74.3	0.75
74.52	1.71
74.74	0.872
74.96	0.271
75.18	0.903
75.4	0.743
75.62	0.164
75.84	0.218
76.06	0.368
76.28	0.135
76.5	0.059
76.72	0.18
76.94	1.193
77.16	1.098
77.38	0.402
77.6	0.258
77.82	1.046
78.04	0.471
78.26	0.012
78.48	0.128
78.7	0.093
78.92	0.206
79.14	0.971
79.36	1.301
79.58	0.572
79.8	0.48
80.02	0.219
80.24	0.189
80.46	0.079
80.68	0.344
80.9	0.189
81.12	0.692
81.34	0.473
81.56	0.299
81.78	0.256
82	0.516
82.22	0.447
82.44	0.102
82.66	0.009
82.88	0.138
83.1	0.342
83.32	0.133
83.54	0.071
83.76	2.062
83.98	1.281
84.2	0.436
84.42	0.181
84.64	0
84.86	0.004
85.08	0.055
85.3	5.25
85.52	2.591
85.74	0.535
85.96	0.447
86.18	0.096
86.4	0.668
86.62	0.892
86.84	0.115
87.06	0.003
87.28	0
87.5	0.236
87.72	1.822
87.94	0.49
88.16	0.185
88.38	0.954
88.6	0.167
88.82	0.185
89.04	0.782
89.26	0.077
89.48	0.124
89.7	0.959
89.92	1.072
