Measurement: Powder, Xray Data XY Processed
Mineral: Schorlomite
Rruff sample: R060125
Ideal chemistry: Ca_3_Ti^4+^_2_(Fe^3+^_2_Si)O_12_
Locality: Magnet Cove, Arkansas, USA
Source: University of Arizona Mineral Museum
Description: Black massive
Diffraction sample description: Powder, mixture of two garnet phases, the second phase is andradite
Measured chemistry: Ca_3.00_(Ti^4+^_0.74_Zr_0.44_Fe^3+^_0.38_Al_0.21_Mg_0.20_Mn_0.03_)_Σ=2_[(Si_0.68_Fe^3+^_0.32_)_Σ=1_O_4_]_3_
Cell parameters: a: 12.0988(4) b: 12.0988(4) c: 12.0988(4) alpha: 90 beta: 90 gamma: 90 volume: 1771.0(2) crystal system: cubic
x	intensity
5	0
5.22	1.347
5.44	7.042
5.66	8.629
5.88	5.263
6.1	3.059
6.32	6.194
6.54	16.8
6.76	2.914
6.98	9.179
7.2	10.584
7.42	18.113
7.64	11.657
7.86	1.019
8.08	3.671
8.3	1.69
8.52	10.096
8.74	6.564
8.96	3.291
9.18	3.802
9.4	6.252
9.62	0.706
9.84	6.858
10.06	0.44
10.28	5.983
10.5	3.083
10.72	15.303
10.94	4.208
11.16	8.3
11.38	11.162
11.6	10.224
11.82	11.136
12.04	2.273
12.26	7.693
12.48	8.038
12.7	14.079
12.92	11.215
13.14	10.404
13.36	3.479
13.58	16.576
13.8	2.7
14.02	6.645
14.24	3.853
14.46	6.605
14.68	8.125
14.9	14.112
15.12	12.15
15.34	10.239
15.56	3.12
15.78	15.368
16	4.33
16.22	4.917
16.44	2.405
16.66	6.344
16.88	3.307
17.1	12.387
17.32	9.482
17.54	6.593
17.76	4.612
17.98	3.783
18.2	3.298
18.42	13.476
18.64	10.031
18.86	7.51
19.08	5.554
19.3	4.735
19.52	2.333
19.74	16.346
19.96	2.331
20.18	4.925
20.4	7.013
20.62	21.508
20.84	33.827
21.06	2.85
21.28	4.933
21.5	5.013
21.72	3.689
21.94	9.594
22.16	5.581
22.38	10.777
22.6	14.808
22.82	14.714
23.04	9.284
23.26	8.712
23.48	0.088
23.7	17.14
23.92	8.539
24.14	13.722
24.36	8.893
24.58	11.076
24.8	8.776
25.02	7.699
25.24	9.576
25.46	9.417
25.68	5.932
25.9	8.448
26.12	4.276
26.34	11.026
26.56	7.916
26.78	5.708
27	6.704
27.22	0.421
27.44	6.755
27.66	8.598
27.88	3.423
28.1	0.242
28.32	5.02
28.54	0.689
28.76	4.181
28.98	8.156
29.2	53.011
29.42	19.372
29.64	57.098
29.86	10.181
30.08	9.594
30.3	4.046
30.52	15.303
30.74	4.893
30.96	7.146
31.18	6.922
31.4	1.916
31.62	11.939
31.84	12.262
32.06	2.075
32.28	1.864
32.5	11.416
32.72	59.934
32.94	18.285
33.16	138.532
33.38	14.33
33.6	10.659
33.82	7.55
34.04	8.186
34.26	10.505
34.48	29.779
34.7	6.963
34.92	17.78
35.14	11.005
35.36	5.99
35.58	12.533
35.8	1.423
36.02	66.36
36.24	22.114
36.46	86.495
36.68	5.36
36.9	16.193
37.12	8.132
37.34	7.305
37.56	12.473
37.78	9.62
38	16.115
38.22	6.028
38.44	21.122
38.66	3.962
38.88	12.02
39.1	4.284
39.32	11.295
39.54	9.416
39.76	1.642
39.98	11.281
40.2	12.247
40.42	15.038
40.64	5.104
40.86	7.315
41.08	12.981
41.3	9.429
41.52	8.229
41.74	10.349
41.96	9.37
42.18	1.505
42.4	14.545
42.62	14.005
42.84	12.059
43.06	5.512
43.28	6.37
43.5	7.127
43.72	0.929
43.94	10.041
44.16	5.818
44.38	7.782
44.6	2.505
44.82	4.119
45.04	4.762
45.26	1.188
45.48	1.892
45.7	14.665
45.92	0.639
46.14	7.459
46.36	20.296
46.58	4.708
46.8	1.927
47.02	13.223
47.24	13.745
47.46	5.937
47.68	17.503
47.9	5.536
48.12	6.726
48.34	1.042
48.56	11.405
48.78	12.391
49	6.151
49.22	8.878
49.44	17.808
49.66	4.418
49.88	4.678
50.1	0.549
50.32	11.906
50.54	7.702
50.76	9.615
50.98	1.173
51.2	13.33
51.42	0.267
51.64	6.207
51.86	16.211
52.08	9.617
52.3	2.312
52.52	14.279
52.74	8.769
52.96	0.661
53.18	3.511
53.4	1.331
53.62	6.176
53.84	7.995
54.06	33.172
54.28	17.961
54.5	15.826
54.72	39.661
54.94	10.3
55.16	8.91
55.38	5.604
55.6	0.304
55.82	3.853
56.04	6.604
56.26	48.435
56.48	34.966
56.7	12.838
56.92	13.958
57.14	40.249
57.36	2.715
57.58	0.932
57.8	7.06
58.02	11.516
58.24	3.481
58.46	11.895
58.68	6.299
58.9	3.899
59.12	18.07
59.34	6.402
59.56	8.183
59.78	0.975
60	3.853
60.22	14.085
60.44	13.742
60.66	11.074
60.88	4.025
61.1	5.07
61.32	19.551
61.54	18.498
61.76	15.348
61.98	18.665
62.2	5.146
62.42	12.139
62.64	0.268
62.86	11.349
63.08	9.508
63.3	3.565
63.52	1.655
63.74	4.728
63.96	8.577
64.18	6.152
64.4	7.944
64.62	13.628
64.84	13.007
65.06	4.115
65.28	6.142
65.5	11.146
65.72	16.141
65.94	1.127
66.16	14.281
66.38	8.456
66.6	16.418
66.82	3.72
67.04	2.279
67.26	6.258
67.48	2.046
67.7	6.818
67.92	7.628
68.14	13.758
68.36	2.351
68.58	17.738
68.8	9.545
69.02	12.48
69.24	4.639
69.46	12.408
69.68	14.71
69.9	5.015
70.12	10.152
70.34	2.119
70.56	15.559
70.78	14.678
71	3.153
71.22	13.518
71.44	18.317
71.66	4.695
71.88	7.906
72.1	8.474
72.32	13.088
72.54	17.949
72.76	11.62
72.98	0.2
73.2	5.163
73.42	14.03
73.64	5.628
73.86	3.615
74.08	9.535
74.3	2.643
74.52	3.316
74.74	3.414
74.96	9.637
75.18	6.029
75.4	22.053
75.62	14.69
75.84	4.603
76.06	14.24
76.28	2.646
76.5	4.584
76.72	11.343
76.94	21.974
77.16	10.156
77.38	1.169
77.6	9.37
77.82	7.474
78.04	6.548
78.26	2.886
78.48	18.915
78.7	14.015
78.92	5.15
79.14	17.321
79.36	18.221
79.58	7.298
79.8	6.613
80.02	1.865
80.24	18.985
80.46	12.91
80.68	9.388
80.9	1.509
81.12	8.544
81.34	12.366
81.56	8.306
81.78	1.862
82	11.647
82.22	3.631
82.44	0.586
82.66	14.669
82.88	9.622
83.1	17.803
83.32	11.122
83.54	12.907
83.76	9.797
83.98	5.928
84.2	11.74
84.42	6.487
84.64	13.298
84.86	8.154
85.08	6.616
85.3	10.216
85.52	10.609
85.74	10.485
85.96	20.312
86.18	0.815
86.4	14.876
86.62	13.894
86.84	3.865
87.06	26.493
87.28	25.707
87.5	13.776
87.72	7.115
87.94	4.685
88.16	5.541
88.38	18.982
88.6	21.334
88.82	19.657
89.04	7.17
89.26	3.612
89.48	10.109
89.7	5.892
89.92	9.418
