Measurement: Powder, Xray Data XY Processed
Mineral: Schrockingerite
Rruff sample: R050565
Ideal chemistry: NaCa_3_(U^6+^O_2_)(S^6+^O_4_)(CO_3_)_3_F10H_2_O
Locality: Lost Creek, Sweetwater County, Wyoming, USA
Source: Dave Bunk Minerals
Description: Scaly aggregate of pale green micaceous crystals
Diffraction sample description: Powder
Measured chemistry: Na_1.00_Ca_3.00_(U_1.00_O_2_)(S_1.00_O_4_)(CO_3_)_3_F_1.00_Â·12H_2_O ; C and H not measured but estimated by stoichiometry
Cell parameters: a: 9.69(2) b: 9.579(2) c: 14.257(7) alpha: 91.56(3) beta: 92.53(9) gamma: 120.66(5) volume: 1130(1) crystal system: triclinic
x	intensity
5	0
5.22	8.847
5.44	11.296
5.66	4.829
5.88	12.132
6.1	128.826
6.32	8.631
6.54	5.193
6.76	3.454
6.98	0.359
7.2	5.987
7.42	2.506
7.64	2.074
7.86	1.611
8.08	1.206
8.3	0.067
8.52	8.145
8.74	9.515
8.96	6.718
9.18	12.494
9.4	8.261
9.62	1.133
9.84	4.106
10.06	6.809
10.28	1.846
10.5	14.624
10.72	38.062
10.94	1.547
11.16	9.646
11.38	4.049
11.6	11.833
11.82	17.444
12.04	54.821
12.26	450.926
12.48	75.792
12.7	18.393
12.92	2.516
13.14	2.704
13.36	1.466
13.58	10.718
13.8	10.058
14.02	5.712
14.24	1.892
14.46	7.342
14.68	5.011
14.9	8.028
15.12	2.316
15.34	0.107
15.56	8.246
15.78	40.086
16	27.106
16.22	56.492
16.44	59.118
16.66	56.619
16.88	11.072
17.1	9.491
17.32	1.855
17.54	7.102
17.76	0.763
17.98	1.544
18.2	18.087
18.42	108.312
18.64	57.857
18.86	14.617
19.08	0.388
19.3	0.24
19.52	8.33
19.74	4.263
19.96	7.186
20.18	14.099
20.4	9.717
20.62	3.919
20.84	13.329
21.06	8.994
21.28	57.499
21.5	30.134
21.72	21.668
21.94	52.205
22.16	17.969
22.38	13.321
22.6	16.503
22.82	10.819
23.04	9.613
23.26	8.302
23.48	1.703
23.7	1.078
23.92	9.22
24.14	10.712
24.36	3.712
24.58	20.296
24.8	18.025
25.02	6.586
25.24	6.537
25.46	11.714
25.68	3.082
25.9	7.57
26.12	0.995
26.34	6.017
26.56	26.461
26.78	19.346
27	18.123
27.22	6.361
27.44	8.378
27.66	9.605
27.88	0.994
28.1	0.482
28.32	15.142
28.54	18.044
28.76	34.47
28.98	32.119
29.2	24.074
29.42	0.306
29.64	3.13
29.86	4.226
30.08	3.043
30.3	15.523
30.52	12.449
30.74	5.967
30.96	24.035
31.18	183.569
31.4	14.583
31.62	2.154
31.84	6.071
32.06	13.712
32.28	58.798
32.5	4.191
32.72	12.117
32.94	13.591
33.16	9.041
33.38	13.022
33.6	5.88
33.82	1.292
34.04	1.058
34.26	4.116
34.48	6.546
34.7	11.604
34.92	6.457
35.14	5.357
35.36	12.329
35.58	9.943
35.8	8.193
36.02	0.273
36.24	1.61
36.46	2.905
36.68	4.827
36.9	9.277
37.12	5.317
37.34	13.301
37.56	22.561
37.78	6.474
38	0.34
38.22	10.733
38.44	4.375
38.66	5.216
38.88	6.505
39.1	28.596
39.32	12.916
39.54	0.587
39.76	13.965
39.98	9.851
40.2	5.128
40.42	7.759
40.64	4.101
40.86	1.422
41.08	1.404
41.3	15.964
41.52	7.796
41.74	1.904
41.96	7.251
42.18	0.87
42.4	3.901
42.62	13.642
42.84	16.98
43.06	12.555
43.28	0.475
43.5	2.425
43.72	0.137
43.94	5.173
44.16	47.517
44.38	9.144
44.6	6.503
44.82	10.927
45.04	0.399
45.26	1.108
45.48	18.928
45.7	19.054
45.92	5.349
46.14	12.236
46.36	0.536
46.58	10.482
46.8	8.851
47.02	8.232
47.24	1.527
47.46	15.075
47.68	17.447
47.9	10.846
48.12	1.373
48.34	4.833
48.56	14.233
48.78	0.908
49	0.272
49.22	1.506
49.44	4.257
49.66	1.896
49.88	12.174
50.1	24.185
50.32	12.744
50.54	19.155
50.76	4.978
50.98	18.475
51.2	12.578
51.42	0.41
51.64	7.317
51.86	4.058
52.08	7.365
52.3	6.634
52.52	0.104
52.74	7.469
52.96	5.133
53.18	0.293
53.4	7.497
53.62	2.827
53.84	4.938
54.06	3.831
54.28	6.593
54.5	3.318
54.72	10.309
54.94	9.091
55.16	3.188
55.38	0.587
55.6	6.98
55.82	7.419
56.04	10.939
56.26	1.343
56.48	1.924
56.7	4.168
56.92	2.287
57.14	8.931
57.36	3.527
57.58	2.988
57.8	9.825
58.02	1.538
58.24	4.044
58.46	14.576
58.68	1.602
58.9	4.6
59.12	2.427
59.34	12.649
59.56	3.689
59.78	0.708
60	5.771
60.22	3.856
60.44	7.427
60.66	6.405
60.88	3.662
61.1	3.271
61.32	5.128
61.54	1.287
61.76	4.143
61.98	0.537
62.2	11.768
62.42	1.062
62.64	7.224
62.86	1.457
63.08	2.71
63.3	3.748
63.52	5.927
63.74	2.953
63.96	2.033
64.18	3.144
64.4	6.034
64.62	9.03
64.84	3.021
65.06	2.779
65.28	2.312
65.5	8.285
65.72	6.385
65.94	0.622
66.16	6.749
66.38	5.059
66.6	12.252
66.82	7.736
67.04	2.777
67.26	2.876
67.48	1.114
67.7	8.007
67.92	3.167
68.14	7.158
68.36	4.778
68.58	6.135
68.8	11.221
69.02	7.64
69.24	12.332
69.46	1.272
69.68	5.07
69.9	0.477
70.12	2.194
70.34	10.418
70.56	12.312
70.78	6.585
71	7.578
71.22	0.293
71.44	1.209
71.66	3.55
71.88	1.985
72.1	9.268
72.32	6.246
72.54	5.512
72.76	0.35
72.98	3.951
73.2	5.353
73.42	5.49
73.64	4.497
73.86	1.517
74.08	6.585
74.3	1.415
74.52	0.271
74.74	5.705
74.96	1.764
75.18	6.427
75.4	3.721
75.62	4.9
75.84	7.941
76.06	1.988
76.28	11.945
76.5	0.298
76.72	7.987
76.94	2.91
77.16	3.159
77.38	1.27
77.6	5.459
77.82	4.385
78.04	0.362
78.26	0.394
78.48	6.737
78.7	0.977
78.92	3.823
79.14	5.996
79.36	6.052
79.58	1.098
79.8	5.701
80.02	3.625
80.24	0.525
80.46	2.338
80.68	1.054
80.9	3.013
81.12	8.88
81.34	2.937
81.56	2.905
81.78	5.978
82	10.314
82.22	7.571
82.44	0.46
82.66	5.602
82.88	2.86
83.1	10.148
83.32	5.362
83.54	9.404
83.76	11.148
83.98	3.055
84.2	11.103
84.42	2.251
84.64	7.374
84.86	3.364
85.08	4.497
85.3	6.501
85.52	3.573
85.74	2.526
85.96	1.498
86.18	8.757
86.4	1.964
86.62	0.924
86.84	3.737
87.06	3.766
87.28	0.151
87.5	4.625
87.72	5.729
87.94	7.691
88.16	6.85
88.38	6.888
88.6	6.909
88.82	7.008
89.04	7.989
89.26	6.243
89.48	9.695
89.7	0.442
89.92	2.723
