Measurement: Powder, Xray Data XY Processed
Mineral: Schwertmannite
Rruff sample: R220002
Ideal chemistry: Fe^3+^_16_O_16_(OH)_9.6_(S^6+^O_4_)_3.2_10H_2_O
Locality: A ditch in the Tinto river basin, SW Spain
Source: Annika Parviainen
Description: Sample LN-2 from Parviainen et al (2015). A crusty surface with a layered texture consisting of spherical aggregates exhibiting the three major phases schwertmannite, jarosite, and goethite
Diffraction sample description: Powder, sharp peak is quartz
x	intensity
4.0052	0
4.1472	24.3657
4.2893	7.05206
4.4313	45.9731
4.5734	48.5207
4.7154	50.6952
4.8575	41.8668
4.9995	50.5134
5.1416	41.6071
5.2836	25.5682
5.4257	55.6367
5.5677	38.59
5.7098	13.6783
5.8519	5.78406
5.9939	20.9868
6.136	1.94037
6.278	13.5162
6.4201	16.5768
6.5621	3.9339
6.7042	13.279
6.8462	9.10242
6.9883	12.4944
7.1303	19.2034
7.2724	9.35498
7.4144	17.2068
7.5565	30.6853
7.6985	11.938
7.8406	4.96088
7.9826	40.4043
8.1247	8.047
8.2667	1.14526
8.4088	25.0792
8.5508	3.35757
8.6929	7.9415
8.8349	23.8705
8.977	16.515
9.119	37.3472
9.2611	24.0749
9.4032	19.4913
9.5452	0.736938
9.6873	8.77832
9.8293	9.69003
9.9714	12.1512
10.1134	10.4064
10.2555	2.64056
10.3975	26.0226
10.5396	14.6441
10.6816	9.38019
10.8237	38.0579
10.9657	18.1216
11.1078	20.7377
11.2498	25.8867
11.3919	7.82352
11.5339	4.86703
11.676	1.29449
11.818	22.7683
11.9601	14.8791
12.1021	9.11484
12.2442	23.0698
12.3862	25.1091
12.5283	22.7068
12.6703	9.22003
12.8124	16.4023
12.9545	16.4651
13.0965	21.9908
13.2386	10.9545
13.3806	15.1198
13.5227	6.12268
13.6647	26.0508
13.8068	25.8509
13.9488	22.2002
14.0909	12.3947
14.2329	0.007202
14.375	3.45071
14.517	2.92926
14.6591	3.36148
14.8011	17.2035
14.9432	21.0949
15.0852	14.5293
15.2273	6.63174
15.3693	10.0543
15.5114	2.5488
15.6534	9.94104
15.7955	2.8154
15.9375	12.2876
16.0796	20.9019
16.2216	4.715
16.3637	22.533
16.5058	4.59567
16.6478	13.564
16.7899	18.7057
16.9319	3.02087
17.074	14.575
17.216	13.014
17.3581	8.48105
17.5001	16.5686
17.6422	11.203
17.7842	37.6313
17.9263	7.12326
18.0683	28.0547
18.2104	17.4728
18.3524	31.2079
18.4945	13.8229
18.6365	7.61914
18.7786	17.9092
18.9206	2.11475
19.0627	28.0432
19.2047	17.1215
19.3468	13.6535
19.4888	1.81186
19.6309	16.3382
19.7729	6.61893
19.915	17.4656
20.0571	4.41409
20.1991	3.94818
20.3412	8.38437
20.4832	22.9688
20.6253	3.20508
20.7673	36.4244
20.9094	40.2891
21.0514	15.7546
21.1935	26.6513
21.3355	20.6611
21.4776	18.6329
21.6196	23.4227
21.7617	1.72083
21.9037	16.7616
22.0458	16.5206
22.1878	12.9878
22.3299	10.2405
22.4719	20.4674
22.614	17.4413
22.756	32.5072
22.8981	24.4855
23.0401	0.783356
23.1822	20.5729
23.3242	29.3781
23.4663	33.2812
23.6084	1.04266
23.7504	26.4873
23.8925	9.94702
24.0345	25.2004
24.1766	13.8426
24.3186	20.534
24.4607	9.30508
24.6027	19.3816
24.7448	14.7286
24.8868	7.42957
25.0289	21.7109
25.1709	18.0862
25.313	13.6336
25.455	4.60879
25.5971	13.064
25.7391	15.2219
25.8812	4.36468
26.0232	14.9365
26.1653	0.93866
26.3073	15.9721
26.4494	16.4401
26.5914	50.251
26.7335	93.8256
26.8755	20.9415
27.0176	25.3889
27.1597	11.847
27.3017	12.1165
27.4438	21.9242
27.5858	11.882
27.7279	0.435547
27.8699	32.5514
28.012	17.5091
28.154	20.1043
28.2961	27.1844
28.4381	15.7323
28.5802	19.3766
28.7222	23.5939
28.8643	30.365
29.0063	29.5191
29.1484	19.5009
29.2904	3.94647
29.4325	11.441
29.5745	8.53192
29.7166	10.0726
29.8586	18.9892
30.0007	9.60977
30.1427	23.4358
30.2848	12.5423
30.4268	13.417
30.5689	3.38373
30.711	9.31314
30.853	13.3669
30.9951	25.4391
31.1371	18.6494
31.2792	14.1019
31.4212	20.3218
31.5633	8.21612
31.7053	5.67499
31.8474	26.348
31.9894	24.6092
32.1315	10.0066
32.2735	15.8274
32.4156	18.1189
32.5576	19.0126
32.6997	25.9852
32.8417	5.29898
32.9838	6.56116
33.1258	24.7483
33.2679	25.1153
33.4099	2.25678
33.552	13.0903
33.694	12.086
33.8361	10.3726
33.9781	10.4642
34.1202	20.6929
34.2623	13.5065
34.4043	29.2894
34.5464	33.6933
34.6884	28.3061
34.8305	17.5199
34.9725	40.7605
35.1146	40.4355
35.2566	22.6417
35.3987	36.6202
35.5407	36.282
35.6828	45.0637
35.8248	11.8311
35.9669	12.6262
36.1089	9.56189
36.251	23.6468
36.393	11.7726
36.5351	10.1356
36.6771	25.1679
36.8192	1.13712
36.9612	21.8928
37.1033	13.6917
37.2453	10.0786
37.3874	37.7082
37.5294	15.5304
37.6715	12.7284
37.8136	21.3285
37.9556	0.945862
38.0977	25.0891
38.2397	15.1725
38.3818	20.2578
38.5238	14.8841
38.6659	8.86224
38.8079	19.3382
38.95	20.6109
39.092	23.0479
39.2341	9.95429
39.3761	25.2115
39.5182	23.4311
39.6602	13.1361
39.8023	7.45599
39.9443	3.20328
40.0864	8.11838
40.2284	6.01431
40.3705	9.77438
40.5125	16.2746
40.6546	8.51871
40.7966	1.82394
40.9387	27.9008
41.0807	0.468567
41.2228	10.3766
41.3649	21.4413
41.5069	18.3103
41.649	12.2596
41.791	9.57486
41.9331	23.6637
42.0751	34.2654
42.2172	25.6951
42.3592	14.3688
42.5013	19.2302
42.6433	4.9874
42.7854	11.7972
42.9274	22.4281
43.0695	12.063
43.2115	17.3146
43.3536	20.5663
43.4956	13.2598
43.6377	0.064301
43.7797	2.12549
43.9218	12.3265
44.0638	14.3139
44.2059	8.38956
44.3479	18.8623
44.49	3.3613
44.632	22.182
44.7741	22.2594
44.9162	22.2739
45.0582	0.247833
45.2003	6.53857
45.3423	8.92841
45.4844	5.4451
45.6264	19.4055
45.7685	18.3358
45.9105	4.51285
46.0526	15.1031
46.1946	17.6963
46.3367	8.94116
46.4787	13.752
46.6208	22.6002
46.7628	17.6343
46.9049	29.1956
47.0469	8.31058
47.189	18.6838
47.331	11.527
47.4731	15.5404
47.6151	26.4013
47.7572	9.9668
47.8992	8.61871
48.0413	10.9068
48.1833	26.1769
48.3254	19.2437
48.4675	34.4881
48.6095	3.26849
48.7516	17.1616
48.8936	8.8418
49.0357	17.6399
49.1777	7.29913
49.3198	26.186
49.4618	16.1481
49.6039	0.632629
49.7459	10.9317
49.888	14.85
50.03	14.6336
50.1721	30.7676
50.3141	25.8736
50.4562	25.5844
50.5982	25.9529
50.7403	14.035
50.8823	25.2098
51.0244	23.5267
51.1664	15.5428
51.3085	4.19965
51.4505	7.63202
51.5926	24.6249
51.7346	3.79996
51.8767	14.0673
52.0188	8.9588
52.1608	7.69965
52.3029	20.4429
52.4449	12.897
52.587	19.3594
52.729	15.5732
52.8711	1.22757
53.0131	11.3825
53.1552	11.9727
53.2972	34.2025
53.4393	3.42047
53.5813	21.8546
53.7234	6.37885
53.8654	18.5018
54.0075	20.5229
54.1495	2.32755
54.2916	18.0779
54.4336	4.99087
54.5757	22.8846
54.7177	22.6852
54.8598	16.2099
55.0018	10.1011
55.1439	11.0245
55.2859	10.1112
55.428	6.43326
55.5701	15.5176
55.7121	14.635
55.8542	1.25558
55.9962	21.6544
56.1383	0.25351
56.2803	8.49985
56.4224	28.0111
56.5644	14.3817
56.7065	37.6453
56.8485	10.4746
56.9906	3.82178
57.1326	9.27399
57.2747	8.55862
57.4167	9.81363
57.5588	11.4713
57.7008	3.53195
57.8429	6.46072
57.9849	6.35269
58.127	7.02478
58.269	6.79251
58.4111	6.17511
58.5531	12.2599
58.6952	12.2228
58.8372	11.9127
58.9793	21.7042
59.1214	10.6549
59.2634	16.7606
59.4055	23.774
59.5475	20.8442
59.6896	9.01315
59.8316	1.83328
59.9737	0.555725
