Measurement: Powder, Xray Data XY Processed
Mineral: Scorodite
Rruff sample: R050465
Ideal chemistry: Fe^3+^As^5+^O_4_2H_2_O
Locality: Minas Gerais, Brazil
Source: University of Arizona Mineral Museum
Description: Group of blue prismatic to tabular crystals displaying many modifying forms
Diffraction sample description: Powder
Measured chemistry: Fe^3+^_1.00_As_1.00_O_4_Â·2H_2_O
Cell parameters: a: 10.3227(3) b: 8.9510(4) c: 10.0356(5) alpha: 90. beta: 90. gamma: 90. volume: 927.29(4) crystal system: orthorhombic
x	intensity
5	0
5.22	16.422
5.44	9.173
5.66	12.27
5.88	0.824
6.1	4.209
6.32	15.73
6.54	15.645
6.76	38.063
6.98	11.264
7.2	20.233
7.42	19.169
7.64	3.937
7.86	31.396
8.08	28.131
8.3	7.906
8.52	2.519
8.74	8.398
8.96	25.069
9.18	11.51
9.4	5.456
9.62	4.329
9.84	20.076
10.06	3.201
10.28	0.057
10.5	13.603
10.72	27.137
10.94	15.854
11.16	6.226
11.38	9.805
11.6	12.659
11.82	17.387
12.04	7.199
12.26	23.019
12.48	19.585
12.7	10.537
12.92	28.361
13.14	15.019
13.36	10.841
13.58	12.026
13.8	21.572
14.02	10.146
14.24	6.961
14.46	16.065
14.68	36.019
14.9	7.891
15.12	2.128
15.34	0.285
15.56	16.228
15.78	63.676
16	30.461
16.22	25.547
16.44	29.727
16.66	18.176
16.88	28.927
17.1	7.043
17.32	27.025
17.54	0.874
17.76	124.968
17.98	24.671
18.2	20.809
18.42	1.488
18.64	2.467
18.86	10.326
19.08	16.853
19.3	6.322
19.52	23.673
19.74	88.901
19.96	354.368
20.18	5.993
20.4	19.428
20.62	10.908
20.84	29.326
21.06	14.583
21.28	18.334
21.5	3.967
21.72	25.053
21.94	14.927
22.16	41.553
22.38	17.463
22.6	10.915
22.82	8.26
23.04	10.658
23.26	4.616
23.48	120.765
23.7	15.343
23.92	9.997
24.14	11.313
24.36	24.317
24.58	14.997
24.8	13.995
25.02	24.832
25.24	15.807
25.46	17.289
25.68	15.693
25.9	3.713
26.12	6.626
26.34	14.982
26.56	19.214
26.78	73.615
27	14.368
27.22	14.876
27.44	29.621
27.66	4.911
27.88	12.625
28.1	114.222
28.32	11.805
28.54	13.779
28.76	17.072
28.98	0.218
29.2	44.751
29.42	2.13
29.64	13.14
29.86	358.35
30.08	28.996
30.3	1.576
30.52	17.734
30.74	10.978
30.96	12.872
31.18	41.99
31.4	23.153
31.62	21.384
31.84	14.344
32.06	4.241
32.28	27.411
32.5	25.306
32.72	0.457
32.94	14.943
33.16	37.272
33.38	13.223
33.6	47.653
33.82	10.033
34.04	6.164
34.26	6.561
34.48	14.367
34.7	55.217
34.92	49.243
35.14	18.875
35.36	19.814
35.58	0.128
35.8	12.728
36.02	48.701
36.24	14.413
36.46	1.215
36.68	10.914
36.9	22.252
37.12	29.459
37.34	1.974
37.56	24.81
37.78	1.762
38	19.427
38.22	14.49
38.44	2.013
38.66	3.768
38.88	37.678
39.1	10.965
39.32	10.855
39.54	19.525
39.76	14.847
39.98	17.653
40.2	13.423
40.42	26.825
40.64	17.501
40.86	11.466
41.08	41.585
41.3	27.602
41.52	32.8
41.74	6.798
41.96	9.608
42.18	7.614
42.4	41.813
42.62	33.271
42.84	26.216
43.06	12.214
43.28	21.485
43.5	15.167
43.72	21.703
43.94	6.222
44.16	106.686
44.38	19.046
44.6	0.764
44.82	22.962
45.04	10.705
45.26	109.453
45.48	9.947
45.7	13.413
45.92	12.133
46.14	16.416
46.36	35.139
46.58	27.591
46.8	15.464
47.02	1.146
47.24	20.101
47.46	25.322
47.68	14.599
47.9	37.506
48.12	7.371
48.34	11.126
48.56	14.317
48.78	3.707
49	0.56
49.22	3.728
49.44	2.97
49.66	22.793
49.88	32.892
50.1	20.56
50.32	32.733
50.54	13.972
50.76	36.834
50.98	2.56
51.2	8.417
51.42	14.473
51.64	3.048
51.86	0.145
52.08	42.044
52.3	40.73
52.52	14.948
52.74	2.262
52.96	18.012
53.18	14.528
53.4	30.893
53.62	15.406
53.84	7.925
54.06	27.707
54.28	27.977
54.5	15.202
54.72	12.417
54.94	8.898
55.16	48.098
55.38	22.548
55.6	5.369
55.82	40.925
56.04	25.485
56.26	36.321
56.48	35.621
56.7	6.773
56.92	5.663
57.14	39.834
57.36	2.634
57.58	15.778
57.8	27.404
58.02	12.221
58.24	46.152
58.46	13.839
58.68	26.565
58.9	10.727
59.12	30.411
59.34	15.499
59.56	3.342
59.78	5.879
60	22.764
60.22	19.13
60.44	20.12
60.66	12.901
60.88	17.495
61.1	19.174
61.32	38.387
61.54	16.033
61.76	12.935
61.98	12.461
62.2	21.214
62.42	1.026
62.64	1.278
62.86	0.5
63.08	49.342
63.3	28.439
63.52	19.719
63.74	11.626
63.96	24.241
64.18	40.427
64.4	20.008
64.62	8.356
64.84	14.36
65.06	25.097
65.28	13.351
65.5	3.344
65.72	35.086
65.94	7.938
66.16	22.613
66.38	10.218
66.6	0.121
66.82	6.717
67.04	4.969
67.26	26.45
67.48	23.877
67.7	6.93
67.92	14.634
68.14	23.183
68.36	1.216
68.58	8.449
68.8	33.96
69.02	12.694
69.24	30.15
69.46	17.494
69.68	37.568
69.9	14.916
70.12	8.848
70.34	22.903
70.56	30.787
70.78	3.356
71	1.443
71.22	16.463
71.44	11.304
71.66	26.4
71.88	22.049
72.1	5.769
72.32	22.446
72.54	20.119
72.76	10.888
72.98	13.656
73.2	13.874
73.42	19.275
73.64	14.201
73.86	10.233
74.08	27.326
74.3	10.786
74.52	19.134
74.74	14.896
74.96	16.278
75.18	16.161
75.4	14.986
75.62	2.688
75.84	7.407
76.06	32.672
76.28	15.786
76.5	35.196
76.72	32.699
76.94	1.547
77.16	19.573
77.38	16.886
77.6	7.97
77.82	17.436
78.04	15.41
78.26	24.64
78.48	0.352
78.7	4.007
78.92	21.588
79.14	10.51
79.36	7.296
79.58	11.402
79.8	20.716
80.02	24.712
80.24	23.362
80.46	2.365
80.68	14.792
80.9	22.692
81.12	7.664
81.34	1.368
81.56	7.575
81.78	33.117
82	8.3
82.22	22.969
82.44	7.955
82.66	17.225
82.88	0.961
83.1	13.127
83.32	11.432
83.54	15.072
83.76	6.979
83.98	16.206
84.2	11.956
84.42	29.063
84.64	30.282
84.86	7.825
85.08	2.16
85.3	24.369
85.52	23.466
85.74	27.942
85.96	10.193
86.18	13.769
86.4	5.548
86.62	12.313
86.84	21.196
87.06	30.078
87.28	25.215
87.5	0.137
87.72	28.559
87.94	12.259
88.16	5.919
88.38	5.344
88.6	11.581
88.82	21.936
89.04	24.372
89.26	13.651
89.48	20.262
89.7	19.815
89.92	15.062
