Measurement: Powder, Xray Data XY Processed
Mineral: Searlesite
Rruff sample: R060076
Ideal chemistry: NaBSi_2_O_5_(OH)_2_
Locality: near Cave Spring, Esperalda County, Nevada, USA
Source: Dave Bunk Minerals
Description: Colorless prismatic single crystals
Diffraction sample description: Single crystal, powder profile is calculated
Cell parameters: a: 7.984(1) b: 7.073(1) c: 4.9049(6) alpha: 90 beta: 93.994(9) gamma: 90 volume: 276.31(9) crystal system: monoclinic
x	intensity
5	0
5.22	0
5.44	0
5.66	0
5.88	0
6.1	0
6.32	0
6.54	0
6.76	0
6.98	0
7.2	0
7.42	0
7.64	0
7.86	0
8.08	0
8.3	0
8.52	0
8.74	0
8.96	0
9.18	0
9.4	0
9.62	0
9.84	0
10.06	0
10.28	0
10.5	0
10.72	0
10.94	0
11.16	19.347
11.38	0
11.6	0
11.82	0
12.04	0
12.26	0
12.48	0
12.7	0
12.92	0
13.14	0
13.36	0
13.58	0
13.8	0
14.02	0
14.24	0
14.46	0
14.68	0
14.9	0
15.12	0
15.34	0
15.56	0
15.78	0
16	0
16.22	0
16.44	0
16.66	0.068
16.88	0.037
17.1	0
17.32	0
17.54	0
17.76	0
17.98	0
18.2	0.317
18.42	0
18.64	0
18.86	0
19.08	0
19.3	0
19.52	0
19.74	0
19.96	0
20.18	0
20.4	0
20.62	63.028
20.84	0
21.06	0
21.28	0
21.5	0
21.72	0
21.94	84.716
22.16	0.469
22.38	5.198
22.6	0
22.82	0
23.04	0
23.26	0
23.48	0
23.7	0
23.92	0
24.14	4.814
24.36	0.002
24.58	0
24.8	0
25.02	0.001
25.24	25.88
25.46	3.147
25.68	44.806
25.9	0
26.12	0
26.34	0
26.56	0
26.78	0
27	0
27.22	0
27.44	0.003
27.66	33.79
27.88	42.609
28.1	0
28.32	0
28.54	0
28.76	0
28.98	0
29.2	0
29.42	0
29.64	0
29.86	22.08
30.08	0.001
30.3	0
30.52	0.016
30.74	17.582
30.96	0
31.18	8.454
31.4	0
31.62	0
31.84	0
32.06	0
32.28	0
32.5	22.028
32.72	11.374
32.94	0.011
33.16	0
33.38	0
33.6	24.117
33.82	6.36
34.04	0.287
34.26	0
34.48	0
34.7	0
34.92	0
35.14	0
35.36	0
35.58	0
35.8	0
36.02	0.184
36.24	1.871
36.46	0
36.68	21.456
36.9	0.079
37.12	0
37.34	4.379
37.56	0.039
37.78	5.112
38	0.522
38.22	0
38.44	0
38.66	0
38.88	0.347
39.1	0.02
39.32	0.728
39.54	2.06
39.76	1.648
39.98	2.231
40.2	0
40.42	0
40.64	0
40.86	0
41.08	0
41.3	1.08
41.52	0.084
41.74	1.115
41.96	1.495
42.18	0
42.4	0.003
42.62	3.906
42.84	0
43.06	0
43.28	0
43.5	0
43.72	1.555
43.94	8.834
44.16	0.014
44.38	0.742
44.6	1.327
44.82	1.225
45.04	3.275
45.26	0.003
45.48	1.385
45.7	0.316
45.92	5.694
46.14	0
46.36	0
46.58	0.121
46.8	2.257
47.02	0
47.24	1.004
47.46	0.731
47.68	2.759
47.9	17.425
48.12	0.157
48.34	0
48.56	0
48.78	0.242
49	0.008
49.22	2.201
49.44	0.018
49.66	0.432
49.88	12.312
50.1	0.292
50.32	0
50.54	0.551
50.76	0.223
50.98	0
51.2	0
51.42	0
51.64	12.342
51.86	6.105
52.08	0.47
52.3	0.442
52.52	4.656
52.74	1.549
52.96	2.12
53.18	1.709
53.4	0
53.62	0
53.84	0.001
54.06	0.134
54.28	4.176
54.5	2.769
54.72	1.48
54.94	0.061
55.16	0.843
55.38	0.11
55.6	0.572
55.82	3.038
56.04	0.501
56.26	1.34
56.48	1.093
56.7	0.534
56.92	7.729
57.14	0.906
57.36	3.871
57.58	0.601
57.8	0.565
58.02	0.936
58.24	0.008
58.46	0.303
58.68	0.171
58.9	0
59.12	2.996
59.34	2.543
59.56	1.8
59.78	0.683
60	0.153
60.22	2.518
60.44	0.538
60.66	0
60.88	0.893
61.1	0.015
61.32	2.199
61.54	0.101
61.76	0
61.98	0.123
62.2	0.661
62.42	0.017
62.64	0.741
62.86	0.567
63.08	3.539
63.3	0.947
63.52	1.482
63.74	1.408
63.96	0.044
64.18	0.239
64.4	0
64.62	0.408
64.84	0.683
65.06	1.332
65.28	1.269
65.5	0.409
65.72	0.456
65.94	0.151
66.16	0.001
66.38	2.393
66.6	2.449
66.82	0.184
67.04	0.914
67.26	0.593
67.48	0.001
67.7	0
67.92	0.083
68.14	0.342
68.36	0.027
68.58	0.254
68.8	0.267
69.02	2.496
69.24	1.721
69.46	0.071
69.68	1.19
69.9	0.873
70.12	0.519
70.34	0.069
70.56	1.589
70.78	1.827
71	0.383
71.22	1.86
71.44	2.78
71.66	0.653
71.88	0.003
72.1	0.033
72.32	0.862
72.54	0.656
72.76	0
72.98	0.335
73.2	1.457
73.42	0.652
73.64	2.547
73.86	1.902
74.08	0.656
74.3	0.204
74.52	0.014
74.74	0.006
74.96	0
75.18	0.643
75.4	2.544
75.62	1.921
75.84	0.4
76.06	0.579
76.28	0.445
76.5	0.153
76.72	0.122
76.94	0.112
77.16	0.05
77.38	0
77.6	0
77.82	2.759
78.04	2.065
78.26	0.607
78.48	0.162
78.7	0.93
78.92	0.629
79.14	0
79.36	0.096
79.58	1.479
79.8	1.313
80.02	1.16
80.24	1.054
80.46	0.02
80.68	0.163
80.9	0.302
81.12	0.63
81.34	2.876
81.56	2.358
81.78	1.354
82	0.133
82.22	0.062
82.44	0.007
82.66	0.361
82.88	0.943
83.1	0.691
83.32	2.126
83.54	1.638
83.76	0.892
83.98	0.302
84.2	0.001
84.42	0.072
84.64	0.081
84.86	2.252
85.08	0.411
85.3	0.234
85.52	0.681
85.74	2.295
85.96	0.954
86.18	0.748
86.4	0.055
86.62	0.063
86.84	0.243
87.06	0.025
87.28	0.043
87.5	0.171
87.72	3.923
87.94	1.83
88.16	0.248
88.38	0.003
88.6	0.02
88.82	0
89.04	0.006
89.26	0.195
89.48	0.081
89.7	0.111
89.92	0.003
