Measurement: Powder, Xray Data XY Processed
Mineral: Sekaninaite
Rruff sample: R061053
Ideal chemistry: Fe^2+^_2_Al_3_(AlSi_5_)O_18_
Locality: Dolni Borg, Czechoslovakia
Source: Royal Ontario Museum
Description: Grayish blue massive showing well-developed parting
Diffraction sample description: Powder
Measured chemistry: (Fe^2+^_1.67_Mg_0.15_Mn_0.10_[box]_0.07_Ca_0.01_)_Σ=2_Al_4.00_(Si_4.89_Al_0.11_)_Σ=5_(O_17.89_(OH)_0.11_)_Σ=18_ ·Na_0.14_
Cell parameters: a: 17.2136(4) b: 9.8313(2) c: 9.3047(2) alpha: 90 beta: 90 gamma: 90 volume: 1574.65(4) crystal system: orthorhombic
x	intensity
5	0
5.22	8.8504
5.44	17.3511
5.66	2.73082
5.88	10.6508
6.1	31.0647
6.32	24.7035
6.54	21.7104
6.76	24.4629
6.98	8.92306
7.2	7.30431
7.42	7.23486
7.64	21.2313
7.86	9.86244
8.08	7.75346
8.3	2.99531
8.52	3.69117
8.74	5.07138
8.96	12.3703
9.18	20.4471
9.4	16.166
9.62	7.2589
9.84	17.7794
10.06	30.0495
10.28	679.641
10.5	37.4625
10.72	11.2377
10.94	22.8099
11.16	4.58517
11.38	8.99433
11.6	24.4904
11.82	1.13753
12.04	9.44961
12.26	31.9229
12.48	12.5987
12.7	21.2746
12.92	20.9691
13.14	4.71616
13.36	13.0365
13.58	12.1625
13.8	14.4631
14.02	12.3609
14.24	23.2312
14.46	30.4195
14.68	26.471
14.9	13.848
15.12	23.4425
15.34	39.8034
15.56	18.7167
15.78	2.69042
16	21.8722
16.22	10.2003
16.44	25.4422
16.66	6.12242
16.88	26.0152
17.1	13.9299
17.32	30.5482
17.54	4.72131
17.76	7.52331
17.98	7.25105
18.2	10.0716
18.42	31.736
18.64	13.8784
18.86	28.5654
19.08	49.0251
19.3	9.01915
19.52	5.41069
19.74	7.75601
19.96	31.4398
20.18	13.7847
20.4	26.8419
20.62	13.7837
20.84	12.5835
21.06	2.92616
21.28	11.4533
21.5	8.93944
21.72	299.829
21.94	21.5538
22.16	6.27638
22.38	19.9686
22.6	14.0618
22.82	32.5268
23.04	7.79058
23.26	18.483
23.48	13.2873
23.7	23.0638
23.92	13.8269
24.14	23.6676
24.36	7.48336
24.58	19.7559
24.8	2.69711
25.02	2.35605
25.24	17.4574
25.46	1.9725
25.68	14.7447
25.9	20.5122
26.12	19.112
26.34	429.808
26.56	32.6439
26.78	9.43028
27	7.62498
27.22	27.1256
27.44	21.77
27.66	9.30134
27.88	21.0587
28.1	2.15678
28.32	134.793
28.54	23.2505
28.76	17.4805
28.98	14.4151
29.2	343.696
29.42	132.637
29.64	8.29853
29.86	40.5066
30.08	29.4536
30.3	17.134
30.52	28.0519
30.74	20.142
30.96	27.4089
31.18	50.877
31.4	15.7154
31.62	20.4263
31.84	15.344
32.06	11.586
32.28	6.43424
32.5	16.3877
32.72	4.35561
32.94	22.3685
33.16	7.12776
33.38	24.3241
33.6	53.2607
33.82	94.0169
34.04	23.3941
34.26	18.8534
34.48	1.508
34.7	13.3603
34.92	0.219208
35.14	36.7478
35.36	24.3549
35.58	9.28526
35.8	19.8972
36.02	21.2273
36.24	87.0858
36.46	18.6883
36.68	0.077744
36.9	16.2534
37.12	1.63801
37.34	13.9491
37.56	18.8468
37.78	17.2773
38	22.5615
38.22	15.6608
38.44	13.5032
38.66	38.2156
38.88	13.9054
39.1	28.486
39.32	27.1734
39.54	16.291
39.76	16.2989
39.98	3.07953
40.2	30.6569
40.42	9.79001
40.64	0.783226
40.86	4.61556
41.08	26.6442
41.3	62.9465
41.52	36.4725
41.74	12.4196
41.96	1.08987
42.18	7.86018
42.4	10.1958
42.62	34.6868
42.84	36.1953
43.06	36.5512
43.28	10.443
43.5	16.8408
43.72	24.7135
43.94	17.3618
44.16	20.9761
44.38	19.6847
44.6	32.5784
44.82	11.4313
45.04	5.10481
45.26	19.3309
45.48	22.4573
45.7	0.499359
45.92	5.75691
46.14	33.6241
46.36	3.7375
46.58	11.5218
46.8	32.5985
47.02	6.98257
47.24	34.3484
47.46	22.1487
47.68	23.0795
47.9	8.8596
48.12	31.9689
48.34	33.7357
48.56	33.6207
48.78	48.4086
49	23.4722
49.22	20.8907
49.44	2.11532
49.66	21.3914
49.88	9.80808
50.1	5.80431
50.32	16.2237
50.54	30.0768
50.76	13.9623
50.98	11.0217
51.2	6.45989
51.42	19.8545
51.64	8.87187
51.86	11.5821
52.08	2.10707
52.3	20.7875
52.52	48.1956
52.74	26.8156
52.96	34.4116
53.18	27.8066
53.4	29.0893
53.62	34.361
53.84	30.5507
54.06	191.98
54.28	89.6666
54.5	12.8919
54.72	1.95937
54.94	34.9959
55.16	20.1303
55.38	21.8865
55.6	41.4945
55.82	29.4825
56.04	10.4938
56.26	24.9577
56.48	21.7499
56.7	2.86225
56.92	23.635
57.14	19.5339
57.36	23.0098
57.58	24.3628
57.8	28.3557
58.02	27.0814
58.24	8.07768
58.46	23.9203
58.68	20.3263
58.9	10.8007
59.12	6.55464
59.34	51.0924
59.56	25.7537
59.78	10.2495
60	33.5093
60.22	5.53496
60.44	1.85926
60.66	30.7673
60.88	8.34009
61.1	6.12205
61.32	39.3441
61.54	9.72592
61.76	51.8964
61.98	16.9255
62.2	31.6778
62.42	12.3701
62.64	3.1689
62.86	32.2099
63.08	19.5492
63.3	27.4218
63.52	12.1863
63.74	33.8974
63.96	41.1898
64.18	29.9583
64.4	16.4808
64.62	5.96927
64.84	15.9187
65.06	14.6624
65.28	16.9594
65.5	23.9714
65.72	20.9358
65.94	20.8026
66.16	12.0942
66.38	36.1468
66.6	17.3738
66.82	41.5618
67.04	27.1208
67.26	20.0371
67.48	30.4523
67.7	14.4994
67.92	21.1062
68.14	21.564
68.36	43.1855
68.58	33.0096
68.8	23.7607
69.02	18.8997
69.24	45.1154
69.46	17.5678
69.68	4.29078
69.9	21.4981
70.12	25.0923
70.34	14.0034
70.56	24.8645
70.78	12.392
71	32.7436
71.22	21.4233
71.44	10.8601
71.66	9.91413
71.88	11.6421
72.1	14.2697
72.32	1.22835
72.54	16.4723
72.76	6.30699
72.98	29.5843
73.2	22.6359
73.42	31.8729
73.64	20.042
73.86	2.18764
74.08	40.4895
74.3	23.4512
74.52	17.0763
74.74	9.00313
74.96	20.1519
75.18	10.1588
75.4	1.11339
75.62	19.7572
75.84	20.0017
76.06	10.2517
76.28	25.1186
76.5	11.9818
76.72	17.2437
76.94	31.0979
77.16	11.7187
77.38	15.8368
77.6	15.5113
77.82	10.115
78.04	5.08258
78.26	28.6429
78.48	17.3021
78.7	18.3674
78.92	1.05115
79.14	14.0764
79.36	10.201
79.58	9.34457
79.8	2.95059
80.02	25.0495
80.24	7.42092
80.46	31.2756
80.68	24.0833
80.9	19.3595
81.12	35.7542
81.34	21.849
81.56	5.61656
81.78	17.2691
82	14.0761
82.22	7.55032
82.44	4.76563
82.66	7.00843
82.88	26.9802
83.1	26.6731
83.32	24.1867
83.54	12.3427
83.76	12.1772
83.98	18.9185
84.2	16.5625
84.42	15.4539
84.64	2.08247
84.86	29.3201
85.08	28.2301
85.3	8.15685
85.52	8.72953
85.74	24.6195
85.96	27.2746
86.18	21.9879
86.4	7.01135
86.62	11.6661
86.84	9.84974
87.06	20.3999
87.28	12.4934
87.5	23.4156
87.72	6.51739
87.94	20.6367
88.16	13.6385
88.38	26.5257
88.6	16.5121
88.82	8.79367
89.04	1.49216
89.26	13.6607
89.48	9.23201
89.7	0.449562
89.92	19.763
