Measurement: Powder, Xray Data XY Processed
Mineral: Selenium
Rruff sample: R060137
Ideal chemistry: Se
Locality: Grants Uranium District, Valencia County, New Mexico, USA
Source: University of Arizona Mineral Museum
Description: Mass of gray acicular crystals
Diffraction sample description: Powder
Measured chemistry: Se
Cell parameters: a: 4.3685(3) b: 4.3685(3) c: 4.961(1) alpha: 90 beta: 90 gamma: 120 volume: 81.99(2) crystal system: hexagonal
x	intensity
5	0
5.22	12.4863
5.44	19.152
5.66	2.31406
5.88	4.75892
6.1	16.0616
6.32	3.22357
6.54	9.89161
6.76	32.2433
6.98	17.3223
7.2	15.7706
7.42	11.7395
7.64	2.25401
7.86	15.7195
8.08	4.86756
8.3	3.13144
8.52	0.186081
8.74	5.88501
8.96	1.75203
9.18	7.93845
9.4	7.34479
9.62	17.0286
9.84	12.0443
10.06	12.9073
10.28	8.05355
10.5	1.75413
10.72	13.9569
10.94	16.8898
11.16	2.09049
11.38	9.8193
11.6	22.3754
11.82	14.5764
12.04	14.6265
12.26	17.518
12.48	5.71456
12.7	22.6111
12.92	13.7035
13.14	4.05105
13.36	23.3529
13.58	3.81643
13.8	14.7414
14.02	14.4528
14.24	13.6325
14.46	12.392
14.68	9.86291
14.9	20.5857
15.12	13.0604
15.34	19.7381
15.56	14.7312
15.78	17.9896
16	2.38381
16.22	11.2907
16.44	5.41098
16.66	7.63224
16.88	13.4211
17.1	3.06978
17.32	5.67833
17.54	9.00104
17.76	1.17599
17.98	5.79067
18.2	11.2474
18.42	7.2996
18.64	8.59012
18.86	7.6182
19.08	11.8166
19.3	25.9311
19.52	8.61218
19.74	2.22417
19.96	7.43506
20.18	6.35162
20.4	7.07212
20.62	2.07717
20.84	11.9921
21.06	10.0243
21.28	16.6228
21.5	4.26746
21.72	6.60235
21.94	2.10071
22.16	12.4296
22.38	4.35771
22.6	11.0243
22.82	14.4266
23.04	18.8349
23.26	70.8297
23.48	298.169
23.7	124.973
23.92	31.5705
24.14	21.4663
24.36	10.4215
24.58	1.67139
24.8	0.430353
25.02	3.3888
25.24	4.6759
25.46	6.77715
25.68	4.89098
25.9	10.9527
26.12	9.65328
26.34	6.81699
26.56	22.2004
26.78	16.0948
27	7.74619
27.22	2.9962
27.44	3.45169
27.66	6.03896
27.88	20.0095
28.1	2.23016
28.32	9.25948
28.54	5.04291
28.76	4.4552
28.98	6.44958
29.2	22.0598
29.42	78.1861
29.64	335.79
29.86	240.671
30.08	48.0652
30.3	26.3545
30.52	5.59391
30.74	2.71046
30.96	4.18215
31.18	0.630804
31.4	14.2485
31.62	1.47487
31.84	6.52618
32.06	5.8384
32.28	18.3727
32.5	13.9087
32.72	5.51988
32.94	12.4231
33.16	14.4109
33.38	6.54738
33.6	8.76362
33.82	6.35747
34.04	10.3876
34.26	10.6366
34.48	13.6977
34.7	7.07388
34.92	4.59515
35.14	0.049875
35.36	4.47942
35.58	6.80927
35.8	0.87875
36.02	10.0774
36.24	12.7673
36.46	2.01654
36.68	16.2867
36.9	12.1274
37.12	3.10736
37.34	3.99558
37.56	5.94517
37.78	4.958
38	24.3231
38.22	4.07243
38.44	12.8602
38.66	14.9397
38.88	1.37573
39.1	1.57574
39.32	8.813
39.54	8.77463
39.76	9.12924
39.98	11.5063
40.2	6.40486
40.42	18.3869
40.64	5.78448
40.86	13.1318
41.08	22.5751
41.3	76.5099
41.52	60.7043
41.74	15.4202
41.96	25.3035
42.18	18.0091
42.4	4.7317
42.62	14.4104
42.84	4.06547
43.06	9.61264
43.28	28.8943
43.5	47.7386
43.72	64.6166
43.94	31.9245
44.16	15.8054
44.38	10.9778
44.6	12.9557
44.82	6.0632
45.04	5.38985
45.26	40.3923
45.48	52.2543
45.7	22.0586
45.92	12.4685
46.14	1.0298
46.36	15.8309
46.58	6.02179
46.8	6.11604
47.02	15.1269
47.24	2.9896
47.46	4.22173
47.68	11.3319
47.9	14.8073
48.12	20.3886
48.34	8.4149
48.56	12.4564
48.78	6.97841
49	14.058
49.22	6.55744
49.44	9.63995
49.66	3.55554
49.88	9.62093
50.1	20.0124
50.32	15.5839
50.54	5.09651
50.76	10.4925
50.98	12.9159
51.2	6.60431
51.42	24.2269
51.64	34.7132
51.86	51.966
52.08	18.7081
52.3	5.78812
52.52	19.5974
52.74	2.09521
52.96	11.7314
53.18	3.34501
53.4	0.903978
53.62	5.31652
53.84	11.3988
54.06	3.68033
54.28	10.1647
54.5	8.20828
54.72	5.92471
54.94	10.1507
55.16	8.93628
55.38	11.6611
55.6	24.6124
55.82	15.4162
56.04	22.9848
56.26	22.527
56.48	19.3485
56.7	9.85581
56.92	10.7595
57.14	5.38736
57.36	2.98469
57.58	11.4145
57.8	14.7641
58.02	8.25584
58.24	8.42463
58.46	5.03031
58.68	17.7753
58.9	3.53818
59.12	2.36915
59.34	11.9918
59.56	4.65366
59.78	2.53683
60	6.1614
60.22	2.7678
60.44	2.99237
60.66	4.59293
60.88	7.2055
61.1	0.086031
61.32	24.6287
61.54	14.4981
61.76	25.1184
61.98	5.64891
62.2	5.80633
62.42	0.695299
62.64	2.38045
62.86	4.79351
63.08	4.49646
63.3	2.8367
63.52	2.80281
63.74	15.729
63.96	12.4879
64.18	10.6072
64.4	16.9666
64.62	10.602
64.84	11.8838
65.06	32.294
65.28	35.3458
65.5	24.3201
65.72	29.4974
65.94	4.94259
66.16	7.27306
66.38	9.70397
66.6	0.352942
66.82	5.76482
67.04	4.11391
67.26	7.34322
67.48	14.7608
67.7	1.12247
67.92	0.21496
68.14	16.8087
68.36	13.2095
68.58	2.29246
68.8	8.5988
69.02	16.4215
69.24	2.49543
69.46	4.70255
69.68	7.75747
69.9	6.18074
70.12	1.17899
70.34	1.14641
70.56	10.8895
70.78	2.89757
71	6.93391
71.22	4.98436
71.44	9.26111
71.66	11.4362
71.88	4.4535
72.1	26.5743
72.32	7.5872
72.54	9.96457
72.76	12.3262
72.98	4.53245
73.2	12.4619
73.42	1.66286
73.64	10.3604
73.86	9.50646
74.08	4.87693
74.3	2.17764
74.52	11.9453
74.74	8.7278
74.96	0.25939
75.18	8.10676
75.4	4.82197
75.62	5.57926
75.84	10.5265
76.06	7.26052
76.28	6.91604
76.5	10.7115
76.72	14.1784
76.94	4.14788
77.16	9.09576
77.38	8.16211
77.6	0.021524
77.82	0.224413
78.04	1.49409
78.26	15.639
78.48	12.835
78.7	9.68646
78.92	4.98228
79.14	16.4312
79.36	4.61584
79.58	5.72595
79.8	4.87244
80.02	5.33298
80.24	4.6053
80.46	6.49395
80.68	9.29093
80.9	7.82953
81.12	1.91717
81.34	12.483
81.56	11.4558
81.78	12.8
82	5.78786
82.22	12.8083
82.44	7.6116
82.66	8.52115
82.88	4.69068
83.1	11.1143
83.32	12.1685
83.54	14.3415
83.76	10.2002
83.98	6.77542
84.2	7.65332
84.42	7.57954
84.64	11.5216
84.86	4.26207
85.08	6.23357
85.3	6.79787
85.52	3.37679
85.74	10.1847
85.96	5.74412
86.18	9.61684
86.4	3.96022
86.62	0.60969
86.84	11.1924
87.06	9.42031
87.28	13.5779
87.5	6.54383
87.72	2.72797
87.94	1.14408
88.16	9.5218
88.38	8.75034
88.6	13.8508
88.82	7.94167
89.04	12.6382
89.26	10.705
89.48	9.59995
89.7	8.08741
89.92	4.20851
