Measurement: Powder, Xray Data XY Processed
Mineral: Senandorite
Rruff sample: R060673
Ideal chemistry: Ag^1+^Pb^2+^Sb^3+^_3_S^2-^_6_
Locality: San Jose mine, Oruro, Bolivia
Source: Michael Scott S101092, Rock Currier
Description: Dark steel gray metallic prismatic crystals with striation parallel to the c-axis. About ten percent of the volume is andorite IV, as determined by X-ray diffraction.
Diffraction sample description: Powder, about ten percent of volume is andorite IV, a = 13.0128(9), b = 19.175(2), c = 17.090(2), V = 4264.3(6) as determined on a single-crystal.
Cell parameters: a: 13.0225(9) b: 19.187(1) c: 25.645(2) alpha: 90 beta: 90 gamma: 90 volume: 6407.8(0) crystal system: orthorhombic
x	intensity
5	0
5.22	5.60498
5.44	2.36382
5.66	4.15673
5.88	4.11676
6.1	0.356849
6.32	3.36202
6.54	9.96182
6.76	4.48584
6.98	2.03259
7.2	5.27668
7.42	5.526
7.64	3.72616
7.86	1.89239
8.08	0.733373
8.3	0.252899
8.52	4.87509
8.74	0.879229
8.96	2.82233
9.18	2.78492
9.4	5.59896
9.62	6.59427
9.84	2.59424
10.06	6.65928
10.28	0.324208
10.5	3.844
10.72	2.88867
10.94	1.75895
11.16	1.96375
11.38	3.99652
11.6	5.95038
11.82	5.96258
12.04	2.93074
12.26	0.952083
12.48	4.98146
12.7	2.95815
12.92	2.85911
13.14	1.85845
13.36	3.8149
13.58	0.612601
13.8	4.5319
14.02	0.539492
14.24	2.55768
14.46	11.5654
14.68	2.56939
14.9	6.54821
15.12	4.63878
15.34	1.60075
15.56	1.59823
15.78	5.7358
16	4.7976
16.22	2.83275
16.44	1.82976
16.66	3.86497
16.88	3.8918
17.1	1.03407
17.32	0.94211
17.54	0.933921
17.76	5.93412
17.98	2.92158
18.2	4.92578
18.42	1.91356
18.64	0.908305
18.86	7.95014
19.08	2.99878
19.3	5.10623
19.52	4.96799
19.74	4.14006
19.96	0.11979
20.18	3.18575
20.4	0.101282
20.62	6.14797
20.84	3.09879
21.06	5.0747
21.28	5.99885
21.5	3.94818
21.72	3.87134
21.94	3.70036
22.16	6.47188
22.38	0.599699
22.6	4.43058
22.82	0.673725
23.04	6.23051
23.26	0.22995
23.48	5.23515
23.7	3.19454
23.92	24.2837
24.14	4.20427
24.36	4.21871
24.58	1.17787
24.8	3.90666
25.02	3.81745
25.24	0.758416
25.46	2.93818
25.68	3.87597
25.9	6.47445
26.12	43.3474
26.34	6.12136
26.56	0.050759
26.78	0.171499
27	39.7764
27.22	9.84179
27.44	11.1906
27.66	6.41235
27.88	12.1787
28.1	3.32239
28.32	0.48603
28.54	1.59653
28.76	2.3661
28.98	3.63695
29.2	1.21575
29.42	5.92358
29.64	5.71311
29.86	19.4772
30.08	4.24768
30.3	2.21699
30.52	3.14756
30.74	13.2388
30.96	26.4388
31.18	21.4495
31.4	1.52668
31.62	1.61048
31.84	1.35575
32.06	4.42291
32.28	6.47379
32.5	3.67255
32.72	28.6563
32.94	6.69572
33.16	1.63087
33.38	4.57927
33.6	3.7632
33.82	0.17711
34.04	4.07359
34.26	8.34409
34.48	1.43921
34.7	0.516592
34.92	4.4992
35.14	2.63622
35.36	1.72029
35.58	3.80712
35.8	6.83375
36.02	1.82195
36.24	4.89247
36.46	1.28108
36.68	0.337113
36.9	2.63284
37.12	9.63806
37.34	3.61831
37.56	5.72298
37.78	2.5785
38	6.44966
38.22	0.367352
38.44	1.26369
38.66	2.14028
38.88	0.056288
39.1	5.97628
39.32	3.94439
39.54	4.94358
39.76	26.0152
39.98	4.7869
40.2	7.86583
40.42	4.00655
40.64	5.94702
40.86	2.08538
41.08	5.98918
41.3	8.89212
41.52	6.68168
41.74	6.49587
41.96	1.709
42.18	8.01788
42.4	12.9033
42.62	1.6376
42.84	1.25578
43.06	16.1811
43.28	3.00666
43.5	1.04929
43.72	2.16947
43.94	15.2147
44.16	4.31634
44.38	0.370413
44.6	0.703433
44.82	0.780039
45.04	9.88208
45.26	2.10469
45.48	9.21962
45.7	6.16562
45.92	9.19921
46.14	6.09676
46.36	2.07659
46.58	1.09212
46.8	2.96625
47.02	1.18313
47.24	2.77187
47.46	7.6323
47.68	1.37323
47.9	4.55771
48.12	7.79858
48.34	27.8962
48.56	4.21098
48.78	6.28727
49	2.23481
49.22	3.30927
49.44	0.221129
49.66	0.807374
49.88	1.11058
50.1	3.02803
50.32	0.029815
50.54	1.70389
50.76	4.66512
50.98	17.4242
51.2	10.5533
51.42	5.78047
51.64	1.11861
51.86	4.23771
52.08	1.37534
52.3	1.59189
52.52	3.79214
52.74	1.89672
52.96	4.93987
53.18	5.88283
53.4	5.88801
53.62	7.73051
53.84	5.62323
54.06	5.51039
54.28	2.47962
54.5	11.5
54.72	3.49292
54.94	8.53021
55.16	0.59296
55.38	0.394768
55.6	8.55416
55.82	11.5403
56.04	0.337953
56.26	2.51703
56.48	10.4807
56.7	3.50014
56.92	9.52809
57.14	0.435695
57.36	7.63807
57.58	6.67362
57.8	1.92529
58.02	1.0024
58.24	5.08505
58.46	0.108624
58.68	4.13858
58.9	3.2255
59.12	0.176101
59.34	8.31201
59.56	2.19052
59.78	5.06115
60	0.93394
60.22	6.0729
60.44	5.04341
60.66	2.02056
60.88	1.92086
61.1	0.879956
61.32	2.81191
61.54	5.71072
61.76	5.6471
61.98	3.70625
62.2	2.78446
62.42	0.281553
62.64	1.71246
62.86	4.80255
63.08	3.81046
63.3	3.00374
63.52	6.95051
63.74	0.859853
63.96	3.82884
64.18	10.7856
64.4	8.52617
64.62	3.47087
64.84	5.20735
65.06	6.06914
65.28	2.93832
65.5	4.80855
65.72	1.75715
65.94	0.740478
66.16	2.84299
66.38	2.90598
66.6	9.86689
66.82	3.91429
67.04	0.04713
67.26	2.05921
67.48	5.1017
67.7	5.18015
67.92	1.4088
68.14	0.695575
68.36	1.80277
68.58	4.77417
68.8	6.83838
69.02	2.87294
69.24	2.84578
69.46	2.80771
69.68	2.76999
69.9	7.67087
70.12	8.4911
70.34	6.1226
70.56	4.91405
70.78	3.74914
71	2.66484
71.22	4.55313
71.44	4.53142
71.66	6.83546
71.88	5.92092
72.1	3.02379
72.32	8.06885
72.54	1.18719
72.76	1.22871
72.98	1.26278
73.2	4.26858
73.42	3.2762
73.64	8.28894
73.86	5.22692
74.08	11.1155
74.3	4.9371
74.52	1.98311
74.74	2.98584
74.96	7.94046
75.18	4.94965
75.4	9.02205
75.62	4.16784
75.84	3.30527
76.06	5.4086
76.28	5.47162
76.5	1.49043
76.72	4.53123
76.94	4.46831
77.16	1.44789
77.38	4.4562
77.6	3.42646
77.82	4.34586
78.04	1.21196
78.26	2.23185
78.48	11.0832
78.7	1.29304
78.92	4.19641
79.14	4.27894
79.36	5.43747
79.58	0.456636
79.8	4.5653
80.02	1.7614
80.24	1.83078
80.46	5.92084
80.68	5.92242
80.9	6.9791
81.12	1.8604
81.34	1.90264
81.56	6.94365
81.78	3.84655
82	2.85758
82.22	5.81125
82.44	0.642388
82.66	0.261063
82.88	4.7389
83.1	5.71428
83.32	10.6936
83.54	3.58368
83.76	1.51633
83.98	5.37308
84.2	4.32041
84.42	4.34785
84.64	0.640937
84.86	8.41
85.08	6.38748
85.3	5.26014
85.52	4.21041
85.74	8.33443
85.96	0.266953
86.18	5.25217
86.4	7.22056
86.62	0.206048
86.84	1.1646
87.06	3.16013
87.28	7.04758
87.5	5.94144
87.72	2.06723
87.94	3.23346
88.16	6.13522
88.38	5.20466
88.6	3.23344
88.82	4.37657
89.04	0.502076
89.26	2.5932
89.48	3.69769
89.7	1.51517
89.92	1.83448
