Measurement: Powder, Xray Data XY Processed
Mineral: Senarmontite
Rruff sample: R060002
Ideal chemistry: Sb^3+^_2_O_3_
Locality: Chenlong, Xin Yi County, Guizhou Province, China
Source: Ken Roberts
Description: Glassy coating over an altered stibnite crystal, mixed with cervantite
Diffraction sample description: Powder
Measured chemistry: core and light rim: (Sb_1.99_As_0.01_)_Î£=2_O_3_
Cell parameters: a: 11.1481(6) b: 11.1481(6) c: 11.1481(6) alpha: 90 beta: 90 gamma: 90 volume: 1385.5(0) crystal system: cubic
x	intensity
5	0
5.22	0.928
5.44	3.841
5.66	5.353
5.88	11.862
6.1	5.531
6.32	2.194
6.54	3.757
6.76	3.256
6.98	2.602
7.2	4.229
7.42	0.349
7.64	3.997
7.86	1.323
8.08	7.596
8.3	1.625
8.52	0.745
8.74	1.719
8.96	2.807
9.18	4.944
9.4	4.981
9.62	0.863
9.84	0.925
10.06	0.87
10.28	5.844
10.5	5.826
10.72	2.892
10.94	1.903
11.16	6.9
11.38	3.892
11.6	0.893
11.82	1.866
12.04	1.891
12.26	3.062
12.48	3.078
12.7	2.099
12.92	7.161
13.14	3.164
13.36	2.237
13.58	1.238
13.8	1.192
14.02	6.206
14.24	1.21
14.46	0.205
14.68	6.043
14.9	2.213
15.12	2.207
15.34	1.15
15.56	5.038
15.78	5.038
16	2.047
16.22	0.036
16.44	2.033
16.66	5.036
16.88	2.106
17.1	3.002
17.32	3.957
17.54	1.975
17.76	3.096
17.98	4.162
18.2	2.163
18.42	3.281
18.64	3.286
18.86	4.226
19.08	3.213
19.3	3.145
19.52	0.134
19.74	3.055
19.96	1.038
20.18	1.023
20.4	1.069
20.62	2.115
20.84	5.995
21.06	0.004
21.28	0.003
21.5	4.007
21.72	3.06
21.94	6.112
22.16	0.223
22.38	0.113
22.6	2.235
22.82	1.195
23.04	4.219
23.26	0.773
23.48	1.227
23.7	4.323
23.92	1.485
24.14	1.341
24.36	3.211
24.58	4.046
24.8	0.816
25.02	1.453
25.24	2.223
25.46	2.053
25.68	4.906
25.9	3.606
26.12	7.985
26.34	4.471
26.56	9.101
26.78	1.675
27	2.359
27.22	5.072
27.44	11.031
27.66	7.738
27.88	15.397
28.1	4.106
28.32	3.137
28.54	9.383
28.76	4.583
28.98	14.838
29.2	8.11
29.42	3.219
29.64	6.566
29.86	10.787
30.08	4.439
30.3	9.865
30.52	13.237
30.74	1.382
30.96	4.437
31.18	0.465
31.4	7.66
31.62	2.781
31.84	2.954
32.06	6.903
32.28	2.937
32.5	2.729
32.72	5.588
32.94	3.566
33.16	6.546
33.38	1.559
33.6	1.478
33.82	3.411
34.04	2.419
34.26	3.406
34.48	0.375
34.7	3.395
34.92	3.54
35.14	6.924
35.36	2.99
35.58	4.157
35.8	2.329
36.02	1.565
36.24	1.767
36.46	0.862
36.68	2.885
36.9	3.987
37.12	6.215
37.34	7.002
37.56	3.862
37.78	0.88
38	2.783
38.22	1.238
38.44	2.768
38.66	6.679
38.88	0.357
39.1	2.643
39.32	1.611
39.54	0.429
39.76	3.409
39.98	1.394
40.2	4.413
40.42	3.422
40.64	2.325
40.86	3.355
41.08	2.389
41.3	4.578
41.52	3.734
41.74	1.776
41.96	0.17
42.18	2.992
42.4	1.074
42.62	1.138
42.84	2.234
43.06	4.321
43.28	1.297
43.5	4.384
43.72	5.314
43.94	1.155
44.16	1.098
44.38	2.033
44.6	2.862
44.82	4.688
45.04	3.514
45.26	2.285
45.48	2.294
45.7	2.3
45.92	7.19
46.14	11.051
46.36	4.005
46.58	4.083
46.8	2.212
47.02	6.218
47.24	1.275
47.46	3.286
47.68	4.294
47.9	0.141
48.12	7.969
48.34	5.968
48.56	3.093
48.78	5.975
49	4.01
49.22	3.955
49.44	3.071
49.66	1.031
49.88	1.982
50.1	0.967
50.32	0.899
50.54	2.815
50.76	2.706
50.98	1.526
51.2	6.528
51.42	4.329
51.64	2.123
51.86	5.101
52.08	1.95
52.3	2.993
52.52	0.839
52.74	5.768
52.96	5.84
53.18	8.774
53.4	7.683
53.62	6.438
53.84	0.596
54.06	5.456
54.28	8.363
54.5	8.59
54.72	10.565
54.94	2.671
55.16	0.767
55.38	5.798
55.6	5.112
55.82	1.258
56.04	11.461
56.26	0.422
56.48	3.633
56.7	3.712
56.92	4.608
57.14	4.624
57.36	3.821
57.58	0.157
57.8	1.848
58.02	3.648
58.24	3.659
58.46	7.698
58.68	0.654
58.9	4.71
59.12	6.727
59.34	4.795
59.56	4.79
59.78	5.673
60	4.681
60.22	2.786
60.44	5.841
60.66	1.912
60.88	4
61.1	3.966
61.32	2.869
61.54	2.795
61.76	1.317
61.98	1.387
62.2	5.606
62.42	3.545
62.64	3.42
62.86	1.435
63.08	9.494
63.3	5.496
63.52	6.52
63.74	3.573
63.96	0.65
64.18	1.778
64.4	3.909
64.62	0.983
64.84	5.054
65.06	5.211
65.28	6.101
65.5	4.239
65.72	2.197
65.94	3.262
66.16	4.256
66.38	3.233
66.6	3.088
66.82	2.009
67.04	4.042
67.26	1.958
67.48	3.935
67.7	3.859
67.92	2.788
68.14	5.79
68.36	6.849
68.58	2.878
68.8	3.912
69.02	0.958
69.24	2.103
69.46	5.215
69.68	0.305
69.9	3.281
70.12	2.359
70.34	4.381
70.56	4.288
70.78	2.281
71	4.335
71.22	1.349
71.44	3.435
71.66	4.366
71.88	1.38
72.1	1.466
72.32	4.453
72.54	4.394
72.76	1.378
72.98	1.639
73.2	0.742
73.42	2.232
73.64	0.249
73.86	4.239
74.08	5.253
74.3	3.255
74.52	6.132
74.74	3.154
74.96	5.292
75.18	0.409
75.4	1.424
75.62	7.484
75.84	4.548
76.06	2.522
76.28	2.536
76.5	8.418
76.72	4.402
76.94	7.371
77.16	2.396
77.38	3.309
77.6	2.132
77.82	3.103
78.04	5.036
78.26	4.05
78.48	2.086
78.7	3.032
78.92	1.974
79.14	1.044
79.36	4.111
79.58	5.052
79.8	5.989
80.02	7.058
80.24	2.067
80.46	0.081
80.68	0.956
80.9	0.045
81.12	4.088
81.34	1.079
81.56	5.023
81.78	5.029
82	4.014
82.22	4.02
82.44	0.935
82.66	3.878
82.88	3.917
83.1	0.897
83.32	5.899
83.54	2.772
83.76	0.21
83.98	1.267
84.2	3.714
84.42	5.795
84.64	0.001
84.86	6.078
85.08	1.029
85.3	1.919
85.52	5.9
85.74	5.804
85.96	5.617
86.18	1.494
86.4	2.349
86.62	5.211
86.84	8.333
87.06	5.09
87.28	4.002
87.5	0.15
87.72	4.331
87.94	1.604
88.16	7.527
88.38	0.661
88.6	4.873
88.82	6.034
89.04	3.109
89.26	3.371
89.48	3.145
89.7	5.372
89.92	1.601
