Measurement: Powder, Xray Data XY Processed
Mineral: Serandite
Rruff sample: R040056
Ideal chemistry: NaMn^2+^_2_Si_3_O_8_(OH)
Locality: Mont Saint-Hilaire, Rouville County, Quebec, Canada
Source: Bob Downs
Description: Pink prismatic crystals
Diffraction sample description: Powder
Measured chemistry: Na_1.01_Mn^2+^_1.93_Ca_0.05_Si_3.00_O_8_(OH)
Cell parameters: a: 7.702(2) b: 6.868(2) c: 6.7545(6) alpha: 90.53(2) beta: 94.00(1) gamma: 102.71(4) volume: 347.6(0) crystal system: triclinic
x	intensity
5	0
5.22	16.744
5.44	11.787
5.66	9.544
5.88	0.126
6.1	6.474
6.32	10.445
6.54	16.17
6.76	11.486
6.98	27.751
7.2	23.068
7.42	15.851
7.64	13.56
7.86	0.655
8.08	9.627
8.3	12.836
8.52	5.98
8.74	7.415
8.96	15.338
9.18	28.862
9.4	0.449
9.62	7.256
9.84	24.516
10.06	15.269
10.28	10.115
10.5	6.16
10.72	1.063
10.94	1.164
11.16	10.523
11.38	6.588
11.6	17.513
11.82	62.484
12.04	4.537
12.26	2.823
12.48	0.871
12.7	1.628
12.92	1.62
13.14	43.647
13.36	9.519
13.58	8.639
13.8	5.349
14.02	6.881
14.24	12.029
14.46	11.043
14.68	16.993
14.9	4.481
15.12	0.877
15.34	10.217
15.56	14.282
15.78	22.21
16	12.675
16.22	15.414
16.44	12.346
16.66	15.093
16.88	1.079
17.1	21.718
17.32	10.96
17.54	7.553
17.76	13.565
17.98	11.232
18.2	9.124
18.42	14.755
18.64	10.827
18.86	14.848
19.08	20.686
19.3	22.707
19.52	20.685
19.74	17.236
19.96	9.528
20.18	7.673
20.4	16.584
20.62	11.673
20.84	1.504
21.06	1.649
21.28	11.574
21.5	15.431
21.72	5.585
21.94	0.04
22.16	5.47
22.38	13.936
22.6	5.85
22.82	7.742
23.04	8.355
23.26	10.356
23.48	12.277
23.7	35.169
23.92	12.128
24.14	26.062
24.36	12.25
24.58	6.128
24.8	7.143
25.02	12.295
25.24	28.058
25.46	24.997
25.68	17.916
25.9	14.889
26.12	11.017
26.34	30.126
26.56	26.488
26.78	9.99
27	16.092
27.22	0.548
27.44	14.243
27.66	3.374
27.88	17.714
28.1	45.124
28.32	41.196
28.54	5.014
28.76	6.051
28.98	18.467
29.2	8.276
29.42	2.177
29.64	31.038
29.86	87.294
30.08	9.569
30.3	3.701
30.52	4.718
30.74	6.791
30.96	18.489
31.18	29.424
31.4	83.535
31.62	59.441
31.84	7.601
32.06	12.967
32.28	24.362
32.5	14.035
32.72	16.767
32.94	6.182
33.16	7.371
33.38	23.842
33.6	4.436
33.82	13.901
34.04	8.811
34.26	8.437
34.48	18.044
34.7	10.79
34.92	7.677
35.14	28.17
35.36	13.04
35.58	10.726
35.8	25.315
36.02	17.965
36.24	5.487
36.46	9.344
36.68	13.821
36.9	5.975
37.12	11.385
37.34	8.722
37.56	12.901
37.78	20.335
38	32.193
38.22	16.981
38.44	1.129
38.66	12.794
38.88	5.671
39.1	0.488
39.32	3.666
39.54	10.228
39.76	19.743
39.98	11.485
40.2	20.95
40.42	7.495
40.64	0.168
40.86	14.115
41.08	28.209
41.3	23.171
41.52	14.197
41.74	5.885
41.96	0.224
42.18	3.445
42.4	22.932
42.62	29.351
42.84	21.811
43.06	12.886
43.28	5.911
43.5	3.467
43.72	7.509
43.94	13.14
44.16	4.642
44.38	7.973
44.6	0.528
44.82	4.405
45.04	23.185
45.26	10.145
45.48	10.955
45.7	1.236
45.92	16.347
46.14	15.755
46.36	11.206
46.58	3.325
46.8	19.749
47.02	17.537
47.24	4.445
47.46	15.403
47.68	9.951
47.9	5.043
48.12	2.365
48.34	4.287
48.56	15.22
48.78	3.08
49	7.835
49.22	9.037
49.44	7.281
49.66	11.15
49.88	11.061
50.1	12.765
50.32	4.285
50.54	15.36
50.76	8.573
50.98	6.175
51.2	5.507
51.42	10.686
51.64	21.472
51.86	10.307
52.08	27.544
52.3	5.51
52.52	8.704
52.74	5.855
52.96	11.693
53.18	8.355
53.4	7.902
53.62	7.992
53.84	1.767
54.06	21.932
54.28	18.168
54.5	16.208
54.72	17.354
54.94	0.172
55.16	12.541
55.38	18.818
55.6	7.623
55.82	20.247
56.04	23.27
56.26	11.514
56.48	13.596
56.7	11.719
56.92	11.215
57.14	12.87
57.36	22.98
57.58	6.089
57.8	3.841
58.02	13.482
58.24	9.936
58.46	3.938
58.68	13.964
58.9	12.456
59.12	19.41
59.34	17.503
59.56	12.612
59.78	7.144
60	12.518
60.22	3.95
60.44	3.762
60.66	0.896
60.88	0.809
61.1	6.214
61.32	15.921
61.54	18.212
61.76	10.848
61.98	15.121
62.2	7.24
62.42	5.959
62.64	4.509
62.86	24.324
63.08	3.747
63.3	3.584
63.52	21.418
63.74	12.071
63.96	25.28
64.18	5.081
64.4	0.672
64.62	10.644
64.84	17.623
65.06	0.955
65.28	2.405
65.5	3.129
65.72	19.776
65.94	12.323
66.16	9.06
66.38	4.323
66.6	14.574
66.82	15.025
67.04	11.251
67.26	13.645
67.48	10.813
67.7	10.724
67.92	0.785
68.14	4.05
68.36	19.891
68.58	12.403
68.8	0.07
69.02	24.514
69.24	10.363
69.46	12.539
69.68	10.675
69.9	23.674
70.12	8.696
70.34	26.291
70.56	12.308
70.78	15.195
71	5.512
71.22	0.683
71.44	11.849
71.66	0.849
71.88	5.701
72.1	20.955
72.32	16.419
72.54	15.353
72.76	16.566
72.98	19.546
73.2	15.461
73.42	8.181
73.64	8.464
73.86	13.261
74.08	12.148
74.3	5.385
74.52	4.308
74.74	13.167
74.96	6.243
75.18	8.145
75.4	8.176
75.62	21.378
75.84	24.488
76.06	5.081
76.28	11.24
76.5	2.692
76.72	3.974
76.94	8.481
77.16	11.444
77.38	20.677
77.6	15.914
77.82	7.075
78.04	18.013
78.26	11
78.48	7.401
78.7	7.785
78.92	14.109
79.14	16.893
79.36	9.515
79.58	14.384
79.8	15.494
80.02	11.51
80.24	17.797
80.46	11.927
80.68	10.174
80.9	2.717
81.12	4.796
81.34	8.138
81.56	19.607
81.78	5.144
82	12.488
82.22	23.512
82.44	16.553
82.66	10.415
82.88	9.965
83.1	17.914
83.32	13.583
83.54	16.759
83.76	11.576
83.98	22.458
84.2	5.986
84.42	16.998
84.64	12.822
84.86	10.907
85.08	0.374
85.3	14.88
85.52	3.697
85.74	10.403
85.96	11.075
86.18	3.634
86.4	26.625
86.62	10.262
86.84	3.495
87.06	10.894
87.28	14.705
87.5	20.893
87.72	6.061
87.94	6.169
88.16	15.231
88.38	6.278
88.6	9.944
88.82	4.039
89.04	5.143
89.26	21.076
89.48	29.307
89.7	13.35
89.92	11.927
