Measurement: Powder, Xray Data XY Processed
Mineral: Serendibite
Rruff sample: R070633
Ideal chemistry: Ca_4_(Mg_6_Al_6_)O_4_[Si_6_B_3_Al_3_O_36_]
Locality: Burma
Source: www.multicolour.com
Description: Black, dark blue under strong light, polished gemstone
Diffraction sample description: Powder
Measured chemistry: (Ca_1.91_Na_0.09_)_Σ=2_(Mg_2.59_Al_0.18_Fe^2+^_0.11_Fe^3+^_0.11_)_Σ=3_Al_4.50_B_1.50_(Si_2.78_Al_0.22_)_Σ=3_O_20_ ; B_2_O_3_ estimated by charge balance; Fe^2+^ and Fe^3+^ splitted by charge balance
Cell parameters: a: 10.0181(8) b: 10.4009(8) c: 8.6435(8) alpha: 106.472(6) beta: 95.98(1) gamma: 124.39(1) volume: 671.8(1) crystal system: triclinic
x	intensity
5	0
5.22	5.23696
5.44	0.312843
5.66	0.10416
5.88	19.0922
6.1	13.4262
6.32	1.25846
6.54	4.92166
6.76	22.7188
6.98	9.34093
7.2	20.8893
7.42	18.7656
7.64	8.1116
7.86	15.1869
8.08	13.6917
8.3	26.3226
8.52	14.1558
8.74	4.51464
8.96	22.6478
9.18	21.4675
9.4	11.1945
9.62	18.371
9.84	4.68391
10.06	12.5192
10.28	16.9575
10.5	15.5825
10.72	7.63241
10.94	16.2486
11.16	14.9187
11.38	51.7154
11.6	12.8543
11.82	1.2024
12.04	10.211
12.26	17.0365
12.48	18.4064
12.7	14.7622
12.92	22.6882
13.14	29.2074
13.36	36.1975
13.58	19.5832
13.8	41.8589
14.02	23.6892
14.24	1.67796
14.46	8.76201
14.68	28.1052
14.9	19.1555
15.12	26.4919
15.34	0.220192
15.56	22.4489
15.78	22.1743
16	45.8545
16.22	49.7396
16.44	22.2963
16.66	14.3807
16.88	19.1424
17.1	31.3541
17.32	19.1056
17.54	15.3987
17.76	28.0683
17.98	17.4382
18.2	15.5147
18.42	1.61468
18.64	28.5304
18.86	31.5305
19.08	9.41693
19.3	20.6321
19.52	4.88162
19.74	11.5714
19.96	10.2182
20.18	9.48272
20.4	37.4248
20.62	11.61
20.84	11.8495
21.06	16.1883
21.28	4.95777
21.5	13.4733
21.72	16.8985
21.94	32.3135
22.16	17.5337
22.38	15.0896
22.6	2.9354
22.82	24.6928
23.04	5.64807
23.26	2.97968
23.48	9.58081
23.7	21.9017
23.92	11.7881
24.14	21.2918
24.36	0.316235
24.58	10.7541
24.8	24.1046
25.02	9.88678
25.24	1.41558
25.46	19.7474
25.68	4.6961
25.9	11.59
26.12	8.93075
26.34	12.028
26.56	2.7991
26.78	75.993
27	9.04874
27.22	17.3459
27.44	19.9935
27.66	28.9735
27.88	0.056061
28.1	27.7888
28.32	15.7689
28.54	24.79
28.76	1.527
28.98	12.7836
29.2	2.52409
29.42	9.18423
29.64	29.269
29.86	18.3629
30.08	11.0637
30.3	20.6525
30.52	3.64812
30.74	35.8853
30.96	39.3151
31.18	15.0207
31.4	165.291
31.62	19.2881
31.84	36.2719
32.06	7.7934
32.28	22.412
32.5	15.2349
32.72	23.3779
32.94	18.968
33.16	12.728
33.38	78.9254
33.6	9.35886
33.82	10.3315
34.04	3.73182
34.26	36.6977
34.48	85.9422
34.7	24.9293
34.92	25.0883
35.14	27.7886
35.36	9.95405
35.58	16.9981
35.8	4.90246
36.02	1.10032
36.24	20.5001
36.46	95.3671
36.68	29.164
36.9	22.8939
37.12	2.34238
37.34	8.64831
37.56	8.97716
37.78	23.6062
38	13.1644
38.22	35.5403
38.44	20.1427
38.66	20.8711
38.88	6.33899
39.1	4.32138
39.32	17.9343
39.54	0.205002
39.76	11.2477
39.98	16.2068
40.2	19.9656
40.42	8.80492
40.64	19.8776
40.86	14.8647
41.08	8.12289
41.3	6.8301
41.52	8.97048
41.74	17.0632
41.96	1.84475
42.18	7.4688
42.4	0.749256
42.62	16.5418
42.84	25.7896
43.06	17.5643
43.28	14.558
43.5	6.18386
43.72	6.75431
43.94	11.6194
44.16	23.0831
44.38	76.724
44.6	23.1195
44.82	63.0763
45.04	9.73455
45.26	20.4975
45.48	11.4103
45.7	2.54064
45.92	16.5806
46.14	19.4386
46.36	0.241669
46.58	2.79808
46.8	8.09405
47.02	19.7038
47.24	27.1537
47.46	17.4905
47.68	14.7631
47.9	11.8706
48.12	8.29419
48.34	12.5111
48.56	8.91018
48.78	13.8763
49	13.3213
49.22	0.055618
49.44	15.3833
49.66	0.086855
49.88	7.19845
50.1	9.53041
50.32	6.12772
50.54	14.5638
50.76	6.11105
50.98	6.21975
51.2	7.76514
51.42	7.11422
51.64	4.92946
51.86	5.3008
52.08	8.16151
52.3	16.2991
52.52	9.64637
52.74	0.841196
52.96	16.2997
53.18	4.24899
53.4	14.5727
53.62	2.39011
53.84	21.9342
54.06	9.07099
54.28	7.19718
54.5	17.4426
54.72	13.8389
54.94	23.3591
55.16	5.96628
55.38	14.2246
55.6	10.3101
55.82	12.463
56.04	15.1134
56.26	2.96193
56.48	10.9264
56.7	6.85613
56.92	8.77658
57.14	8.66828
57.36	13.7045
57.58	13.0006
57.8	9.35954
58.02	8.38369
58.24	9.36106
58.46	32.9724
58.68	4.72644
58.9	2.1428
59.12	12.9799
59.34	19.3431
59.56	10.5323
59.78	21.2256
60	14.2022
60.22	13.4051
60.44	0.638212
60.66	15.8909
60.88	8.93465
61.1	9.96603
61.32	8.57635
61.54	5.07872
61.76	10.2661
61.98	10.3319
62.2	20.1218
62.42	0.400723
62.64	4.42072
62.86	4.84353
63.08	5.02985
63.3	22.0236
63.52	2.02614
63.74	2.84268
63.96	4.26965
64.18	5.64745
64.4	21.4408
64.62	16.2785
64.84	16.3487
65.06	10.1092
65.28	6.7916
65.5	32.8575
65.72	8.59146
65.94	7.13286
66.16	0.271175
66.38	2.89994
66.6	5.25493
66.82	1.87344
67.04	25.0119
67.26	5.03221
67.48	17.0298
67.7	8.54027
67.92	14.8063
68.14	10.7121
68.36	9.85812
68.58	7.80046
68.8	6.30617
69.02	9.8527
69.24	10.8309
69.46	15.245
69.68	12.9543
69.9	13.1701
70.12	9.01136
70.34	3.69487
70.56	4.77189
70.78	0.782429
71	12.1231
71.22	11.4721
71.44	12.4342
71.66	11.215
71.88	2.26775
72.1	3.96204
72.32	0.325397
72.54	3.74101
72.76	8.85446
72.98	7.79212
73.2	3.01242
73.42	8.164
73.64	13.3818
73.86	4.6364
74.08	10.8221
74.3	12.8151
74.52	2.82474
74.74	11.3339
74.96	5.93974
75.18	10.8658
75.4	8.58753
75.62	11.2733
75.84	13.1498
76.06	9.85727
76.28	1.91233
76.5	5.64019
76.72	5.03847
76.94	5.77233
77.16	5.8668
77.38	16.1485
77.6	10.1656
77.82	9.19907
78.04	6.24527
78.26	3.3235
78.48	2.19373
78.7	0.232389
78.92	11.2083
79.14	11.2622
79.36	5.41528
79.58	9.52027
79.8	7.34992
80.02	0.503084
80.24	8.57939
80.46	12.0119
80.68	10.1492
80.9	8.35427
81.12	21.136
81.34	10.5398
81.56	9.31205
81.78	10.5667
82	10.7786
82.22	11.147
82.44	6.15994
82.66	1.17068
82.88	3.30192
83.1	7.36103
83.32	7.81998
83.54	13.5714
83.76	7.12594
83.98	13.9648
84.2	9.63439
84.42	14.5381
84.64	20.2305
84.86	3.17005
85.08	6.30874
85.3	17.0766
85.52	6.29258
85.74	12.9445
85.96	3.13246
86.18	7.23094
86.4	11.4422
86.62	7.75539
86.84	2.05994
87.06	6.12104
87.28	13.0006
87.5	9.32067
87.72	13.3642
87.94	13.1645
88.16	18.935
88.38	0.060966
88.6	3.92548
88.82	2.86093
89.04	6.76418
89.26	7.80791
89.48	5.37415
89.7	7.80323
89.92	11.0983
