Measurement: Powder, Xray Data XY Processed
Mineral: Shattuckite
Rruff sample: R050133
Ideal chemistry: Cu^2+^_5_(SiO_3_)_4_(OH)_2_
Locality: Ajo, Pima County, Arizona, USA
Source: University of Arizona Mineral Museum
Description: Aggregate of blue flattened grains
Diffraction sample description: Powder
Measured chemistry: Cu_5.00_(Si_0.99_Al_0.01_O_3_)_4_((OH)_0.97_(H_2_O)_0.03_)_2_
Cell parameters: a: 9.8994(8) b: 19.845(5) c: 5.382(1) alpha: 90. beta: 90. gamma: 90. volume: 1057.3(3) crystal system: orthorhombic
x	intensity
5	0
5.22	13.642
5.44	4.842
5.66	18.785
5.88	12.635
6.1	2.706
6.32	2.418
6.54	15.161
6.76	17.914
6.98	59.741
7.2	637.869
7.42	9.505
7.64	10.989
7.86	1.491
8.08	17.07
8.3	8.91
8.52	27.882
8.74	50.31
8.96	300.563
9.18	32.934
9.4	24.762
9.62	6.345
9.84	1.649
10.06	4.023
10.28	18.394
10.5	24.129
10.72	19.416
10.94	14.381
11.16	12.108
11.38	14.419
11.6	13.426
11.82	14.836
12.04	35.517
12.26	13.816
12.48	26.424
12.7	8.448
12.92	7.444
13.14	13.727
13.36	10.618
13.58	12.421
13.8	12.116
14.02	9.114
14.24	38.661
14.46	22.859
14.68	16.432
14.9	10.265
15.12	18.024
15.34	13.341
15.56	4.184
15.78	21.079
16	31.911
16.22	26.982
16.44	3.465
16.66	15.719
16.88	23.081
17.1	0.047
17.32	15.265
17.54	19.577
17.76	48.317
17.98	377.375
18.2	43.078
18.42	10.583
18.64	23.031
18.86	0.689
19.08	13.432
19.3	12.869
19.52	12.743
19.74	16.329
19.96	108.805
20.18	181.291
20.4	26.744
20.62	6.639
20.84	31.623
21.06	11.89
21.28	6.771
21.5	16.438
21.72	16.027
21.94	11.176
22.16	9.405
22.38	5.09
22.6	10.852
22.82	3.572
23.04	23.323
23.26	20.089
23.48	3.726
23.7	5.004
23.92	27.008
24.14	11.565
24.36	21.272
24.58	55.831
24.8	7.926
25.02	19.204
25.24	27.983
25.46	437.687
25.68	10.58
25.9	4.892
26.12	88.117
26.34	17.226
26.56	14.071
26.78	118.054
27	474.272
27.22	29.046
27.44	1.816
27.66	2.591
27.88	35.627
28.1	38.944
28.32	20.976
28.54	72.575
28.76	2.731
28.98	21.436
29.2	2.003
29.42	10.359
29.64	9.811
29.86	24.427
30.08	3.765
30.3	16.151
30.52	161.841
30.74	25.318
30.96	10.875
31.18	13.028
31.4	3.727
31.62	6.858
31.84	3.25
32.06	72.208
32.28	84.888
32.5	53.063
32.72	133.382
32.94	1.049
33.16	45.172
33.38	39.345
33.6	24.841
33.82	25.429
34.04	2.074
34.26	11.918
34.48	26.94
34.7	59.889
34.92	55.227
35.14	26.954
35.36	1.42
35.58	3.522
35.8	15.442
36.02	13.978
36.24	33.677
36.46	50.16
36.68	6.541
36.9	0.364
37.12	8.746
37.34	37.231
37.56	82.908
37.78	8.041
38	68.944
38.22	64.743
38.44	8.748
38.66	22.928
38.88	0.054
39.1	24.126
39.32	48.409
39.54	23.825
39.76	0.436
39.98	1.629
40.2	25.517
40.42	27.029
40.64	23.928
40.86	21.856
41.08	19.725
41.3	13.219
41.52	10.817
41.74	12.367
41.96	14.611
42.18	20.079
42.4	30.168
42.62	13.081
42.84	12.494
43.06	9.239
43.28	9.875
43.5	17.325
43.72	12.327
43.94	9.202
44.16	18.469
44.38	11.84
44.6	13.035
44.82	17.176
45.04	6.344
45.26	28.149
45.48	54.145
45.7	14.073
45.92	5.6
46.14	10.548
46.36	8.916
46.58	23.019
46.8	16.933
47.02	12.067
47.24	25.005
47.46	22.042
47.68	17.861
47.9	19.372
48.12	3.649
48.34	13.277
48.56	26.739
48.78	8.509
49	29.471
49.22	22.231
49.44	4.777
49.66	25.932
49.88	9.105
50.1	34.113
50.32	31.922
50.54	12.917
50.76	21.201
50.98	81.661
51.2	52.977
51.42	7.756
51.64	1.64
51.86	9.451
52.08	19.052
52.3	10.64
52.52	22.167
52.74	25.404
52.96	16.952
53.18	11.559
53.4	2.057
53.62	15.942
53.84	20.818
54.06	30.197
54.28	30.816
54.5	38.207
54.72	11.906
54.94	4.283
55.16	17.741
55.38	14.963
55.6	23.213
55.82	14.51
56.04	13.958
56.26	5.487
56.48	51.254
56.7	49.082
56.92	48.822
57.14	19.038
57.36	8.669
57.58	12.105
57.8	35.302
58.02	14.623
58.24	8.095
58.46	7.302
58.68	45.935
58.9	51.059
59.12	51.307
59.34	22.249
59.56	3.492
59.78	17.089
60	11.247
60.22	21.89
60.44	14.986
60.66	5.331
60.88	17.061
61.1	14.204
61.32	13.797
61.54	27.248
61.76	20.882
61.98	3.079
62.2	2.145
62.42	6.678
62.64	32.929
62.86	17.998
63.08	19.791
63.3	10.915
63.52	13.986
63.74	13.014
63.96	8.946
64.18	14.948
64.4	8.13
64.62	4.891
64.84	23.781
65.06	47.476
65.28	32.641
65.5	7.943
65.72	6.396
65.94	30.175
66.16	26.131
66.38	4.748
66.6	0.579
66.82	35.568
67.04	38.702
67.26	32.8
67.48	16.726
67.7	16.829
67.92	16.951
68.14	27.041
68.36	14.131
68.58	20.18
68.8	11.586
69.02	6.215
69.24	52.539
69.46	14.257
69.68	31.105
69.9	16.895
70.12	26.754
70.34	19.079
70.56	16.762
70.78	18.032
71	15.59
71.22	27.644
71.44	9.172
71.66	26.193
71.88	14.27
72.1	20.282
72.32	1.332
72.54	16.899
72.76	54.852
72.98	21.921
73.2	19.891
73.42	19.873
73.64	11.028
73.86	16.16
74.08	12.141
74.3	13.158
74.52	23.556
74.74	2.882
74.96	26.997
75.18	2.987
75.4	22.856
75.62	3.503
75.84	16.063
76.06	17.182
76.28	12.226
76.5	7.272
76.72	21.063
76.94	31.849
77.16	6.562
77.38	23.607
77.6	12.764
77.82	4.339
78.04	24.687
78.26	20.93
78.48	5.327
78.7	13.635
78.92	29.412
79.14	19.149
79.36	31.242
79.58	2.229
79.8	35.128
80.02	31.714
80.24	29.422
80.46	18.909
80.68	17.988
80.9	12.15
81.12	21.104
81.34	11.225
81.56	3.106
81.78	5.576
82	2.838
82.22	16.283
82.44	17.045
82.66	1.464
82.88	14.957
83.1	4.998
83.32	0.156
83.54	25.709
83.76	9.649
83.98	20.961
84.2	8.273
84.42	2.491
84.64	20.818
84.86	17.431
85.08	24.321
85.3	8.148
85.52	19.647
85.74	12.32
85.96	6.797
86.18	4.507
86.4	8.131
86.62	26.91
86.84	4.367
87.06	25.643
87.28	24.446
87.5	28.483
87.72	7.329
87.94	11.069
88.16	2.938
88.38	5.511
88.6	8.036
88.82	13.125
89.04	22.155
89.26	8.51
89.48	29.549
89.7	21.722
89.92	22.518
