Measurement: Powder, Xray Data XY Processed
Mineral: Shortite
Rruff sample: R040184
Ideal chemistry: Na_2_Ca_2_(CO_3_)_3_
Locality: Green River, Wyoming, USA
Source: University of Arizona Mineral Museum
Description: Colorless single crystal fragments
Diffraction sample description: Powder
Measured chemistry: (Na_1.47_Ca_0.27_[box]_0.26_)_Î£=2_Ca_2.00_(CO_3_)_3_
Cell parameters: a: 4.9565(3) b: 11.0438(3) c: 7.1184(2) alpha: 90. beta: 90. gamma: 90. volume: 389.65(2) crystal system: orthorhombic
x	intensity
5	0
5.22	4.08615
5.44	7.34499
5.66	0.036807
5.88	1.63671
6.1	7.07048
6.32	5.56229
6.54	1.05882
6.76	5.55974
6.98	6.18304
7.2	8.74888
7.42	6.09757
7.64	10.4505
7.86	0.373475
8.08	2.94818
8.3	8.36991
8.52	1.68246
8.74	5.89687
8.96	6.08393
9.18	5.33431
9.4	5.30231
9.62	2.27058
9.84	12.7718
10.06	0.99971
10.28	5.23573
10.5	4.42113
10.72	5.45986
10.94	7.67747
11.16	9.97706
11.38	5.25562
11.6	10.4317
11.82	10.4741
12.04	15.794
12.26	12.4505
12.48	1.48614
12.7	6.83415
12.92	7.66717
13.14	7.90212
13.36	8.67504
13.58	2.40824
13.8	2.22868
14.02	0.93249
14.24	4.52837
14.46	8.5325
14.68	7.32373
14.9	328.216
15.12	2.76236
15.34	11.8387
15.56	0.303872
15.78	5.88869
16	24.2767
16.22	25.7887
16.44	5.31634
16.66	3.60326
16.88	0.688651
17.1	8.13219
17.32	5.40784
17.54	13.7474
17.76	4.98968
17.98	164.112
18.2	11.1819
18.42	8.29237
18.64	2.10333
18.86	6.17853
19.08	5.42066
19.3	6.70679
19.52	6.79374
19.74	5.90216
19.96	0.88986
20.18	2.93292
20.4	1.10739
20.62	0.747483
20.84	7.20366
21.06	4.28653
21.28	9.27172
21.5	0.853742
21.72	2.24476
21.94	4.15287
22.16	6.08567
22.38	8.01572
22.6	13.9248
22.82	0.700938
23.04	4.57759
23.26	27.6362
23.48	21.5247
23.7	2.46881
23.92	5.37937
24.14	11.0215
24.36	4.02562
24.58	3.11452
24.8	9.09802
25.02	75.2459
25.24	11.4253
25.46	6.48934
25.68	2.39408
25.9	0.381529
26.12	6.27835
26.34	2.30697
26.56	7.3178
26.78	9.47243
27	2.57289
27.22	9.78827
27.44	15.5218
27.66	2.56694
27.88	0.532429
28.1	2.40638
28.32	2.66637
28.54	13.7411
28.76	4.72057
28.98	2.68851
29.2	5.69569
29.42	0.422599
29.64	4.33903
29.86	26.2663
30.08	12.0968
30.3	6.14189
30.52	5.07579
30.74	6.95333
30.96	68.9419
31.18	4.16171
31.4	7.18061
31.62	12.9039
31.84	0.838737
32.06	3.93954
32.28	4.23769
32.5	49.3092
32.72	14.2852
32.94	47.6557
33.16	5.77108
33.38	4.77004
33.6	6.49849
33.82	2.42251
34.04	1.31187
34.26	3.13249
34.48	0.813861
34.7	4.65979
34.92	19.7067
35.14	259.324
35.36	14.0107
35.58	4.94567
35.8	1.8951
36.02	6.20748
36.24	43.2783
36.46	10.4495
36.68	5.61113
36.9	3.1123
37.12	2.32993
37.34	33.3102
37.56	3.39074
37.78	6.44792
38	7.23966
38.22	1.05504
38.44	7.94208
38.66	10.1057
38.88	76.9755
39.1	1.77851
39.32	13.5193
39.54	19.7003
39.76	0.600258
39.98	1.72861
40.2	4.72548
40.42	2.23244
40.64	1.21559
40.86	7.84107
41.08	4.70738
41.3	21.0429
41.52	143.285
41.74	9.04708
41.96	3.83026
42.18	6.84848
42.4	2.03514
42.62	6.24845
42.84	31.3333
43.06	56.3997
43.28	10.1993
43.5	6.93673
43.72	0.377295
43.94	5.91624
44.16	0.740912
44.38	5.43244
44.6	102.155
44.82	7.58075
45.04	1.14989
45.26	15.4552
45.48	124.542
45.7	17.5789
45.92	38.7453
46.14	25.9878
46.36	2.36529
46.58	3.59936
46.8	21.8609
47.02	6.1151
47.24	0.679966
47.46	6.91207
47.68	67.4527
47.9	4.3004
48.12	0.630121
48.34	2.3496
48.56	0.038659
48.78	0.098925
49	2.15045
49.22	19.2349
49.44	116.473
49.66	28.3627
49.88	5.53104
50.1	0.709347
50.32	0.075859
50.54	9.19047
50.76	3.50168
50.98	5.74788
51.2	7.08169
51.42	10.3674
51.64	6.47136
51.86	2.502
52.08	1.39807
52.3	0.589064
52.52	2.75893
52.74	4.72927
52.96	1.52427
53.18	5.46607
53.4	2.33428
53.62	1.05771
53.84	3.84985
54.06	3.0192
54.28	28.0804
54.5	4.83529
54.72	5.33951
54.94	12.0457
55.16	0.820611
55.38	3.78908
55.6	16.6072
55.82	10.2169
56.04	8.05551
56.26	58.9747
56.48	12.5861
56.7	4.25633
56.92	4.4394
57.14	27.7345
57.36	46.3188
57.58	33.5611
57.8	4.90625
58.02	1.7016
58.24	5.61926
58.46	2.9202
58.68	0.169692
58.9	3.39316
59.12	0.583713
59.34	7.62128
59.56	20.6565
59.78	5.56699
60	1.78459
60.22	26.6632
60.44	1.84138
60.66	0.009924
60.88	10.0733
61.1	7.15464
61.32	0.378427
61.54	2.71367
61.76	1.722
61.98	8.50662
62.2	1.48185
62.42	2.32985
62.64	2.24468
62.86	6.08526
63.08	9.0309
63.3	13.9502
63.52	1.88035
63.74	1.74033
63.96	0.575722
64.18	5.4248
64.4	12.4871
64.62	12.873
64.84	6.93415
65.06	5.8684
65.28	7.25636
65.5	3.31527
65.72	1.48301
65.94	0.604269
66.16	3.85775
66.38	2.20264
66.6	1.41113
66.82	4.24462
67.04	10.0403
67.26	0.057342
67.48	0.000942
67.7	3.71527
67.92	1.50781
68.14	5.34649
68.36	5.20528
68.58	2.70951
68.8	5.4627
69.02	0.249392
69.24	3.23213
69.46	13.6246
69.68	4.51431
69.9	10.4749
70.12	0.61368
70.34	3.76917
70.56	3.88951
70.78	2.93135
71	1.95818
71.22	7.00227
71.44	1.17242
71.66	16.1593
71.88	9.86472
72.1	4.98648
72.32	5.15357
72.54	3.1443
72.76	0.075608
72.98	5.10346
73.2	6.14418
73.42	0.802498
73.64	4.18082
73.86	11.2811
74.08	20.3865
74.3	2.40994
74.52	7.64515
74.74	6.55563
74.96	11.6574
75.18	2.81868
75.4	1.87656
75.62	1.09509
75.84	1.88742
76.06	2.87273
76.28	1.78526
76.5	8.84688
76.72	2.74988
76.94	13.436
77.16	8.48443
77.38	3.60496
77.6	6.416
77.82	2.35688
78.04	5.33563
78.26	0.652456
78.48	0.525054
78.7	6.47615
78.92	7.37353
79.14	7.43778
79.36	9.48959
79.58	2.82261
79.8	5.64874
80.02	4.76213
80.24	1.81337
80.46	3.79907
80.68	0.208648
80.9	1.80683
81.12	1.32357
81.34	9.59978
81.56	6.35883
81.78	2.86825
82	6.40341
82.22	6.15152
82.44	1.85376
82.66	6.63766
82.88	6.49919
83.1	21.4748
83.32	8.59134
83.54	8.65133
83.76	4.77354
83.98	1.00392
84.2	1.68689
84.42	3.51105
84.64	3.78376
84.86	8.00902
85.08	4.19312
85.3	6.30392
85.52	3.31198
85.74	2.38075
85.96	5.46688
86.18	3.5458
86.4	1.52299
86.62	5.67154
86.84	2.78316
87.06	0.846203
87.28	3.98145
87.5	6.21872
87.72	2.34558
87.94	4.38407
88.16	0.598501
88.38	2.69133
88.6	5.73427
88.82	7.42571
89.04	2.50129
89.26	2.48621
89.48	0.307855
89.7	6.71921
89.92	0.005109
