Measurement: Powder, Xray Data XY Processed
Mineral: Siderazot
Rruff sample: R060343
Ideal chemistry: Fe_5_N_2_
Locality: Ottaviano, Mount Vesuvius, Italy
Source: Michael Scott
Description: Silvery-white metallic coating on lava
Diffraction sample description: Powder
x	intensity
5	0
5.22	2.976
5.44	23.831
5.66	1.903
5.88	23.22
6.1	7.204
6.32	8.966
6.54	9.394
6.76	15.654
6.98	11.094
7.2	14.874
7.42	6.779
7.64	19.824
7.86	13.951
8.08	30.262
8.3	11.537
8.52	7.589
8.74	23.185
8.96	20.131
9.18	15.814
9.4	8.578
9.62	15.176
9.84	9.64
10.06	20.422
10.28	10.554
10.5	13.174
10.72	11.335
10.94	2.566
11.16	14.389
11.38	6.933
11.6	20.573
11.82	16.188
12.04	6.571
12.26	18.345
12.48	11.063
12.7	4.407
12.92	12.79
13.14	18.035
13.36	5.609
13.58	20.119
13.8	10.377
14.02	0.924
14.24	21.073
14.46	24.881
14.68	0.949
14.9	8.651
15.12	12.575
15.34	10.918
15.56	3.622
15.78	13.225
16	16.299
16.22	7.957
16.44	23.109
16.66	0.759
16.88	14.59
17.1	6.499
17.32	28.179
17.54	9.701
17.76	11.689
17.98	9.155
18.2	10.861
18.42	24.17
18.64	11.813
18.86	11.831
19.08	7.744
19.3	13.417
19.52	18.288
19.74	15.814
19.96	15.051
20.18	18.509
20.4	20.836
20.62	20.769
20.84	6.617
21.06	9.524
21.28	16.017
21.5	10.014
21.72	7.275
21.94	6.543
22.16	4.537
22.38	3.147
22.6	23.208
22.82	0.147
23.04	17.042
23.26	12.197
23.48	12.265
23.7	21.546
23.92	14.442
24.14	6.641
24.36	1.727
24.58	25.65
24.8	10.231
25.02	9.116
25.24	18.761
25.46	0.658
25.68	10.043
25.9	30.919
26.12	7.671
26.34	18.183
26.56	10.019
26.78	6.967
27	7.446
27.22	14.003
27.44	21.365
27.66	25.352
27.88	40.282
28.1	15.677
28.32	8.343
28.54	1.457
28.76	2.45
28.98	8.714
29.2	9.358
29.42	4.388
29.64	19.245
29.86	29.226
30.08	3.337
30.3	14.44
30.52	9.801
30.74	15.605
30.96	0.153
31.18	10.202
31.4	13.751
31.62	17.853
31.84	20.713
32.06	13.388
32.28	9.565
32.5	7.232
32.72	18.9
32.94	18.362
33.16	16.307
33.38	1.123
33.6	13.973
33.82	1.154
34.04	12.739
34.26	5.89
34.48	17.025
34.7	15.76
34.92	23.184
35.14	22.414
35.36	16.556
35.58	26.69
35.8	15.34
36.02	5.772
36.24	12.436
36.46	15.757
36.68	8.245
36.9	7.485
37.12	7.735
37.34	18.922
37.56	10.981
37.78	11.109
38	10.292
38.22	6.172
38.44	11.035
38.66	8.025
38.88	0.368
39.1	2.104
39.32	11.301
39.54	4.345
39.76	16.101
39.98	3.43
40.2	6.788
40.42	3.722
40.64	10.822
40.86	13.689
41.08	12.404
41.3	3.915
41.52	1.109
41.74	7.947
41.96	6.989
42.18	25.772
42.4	20.581
42.62	13.537
42.84	21.92
43.06	6.701
43.28	12.855
43.5	14.948
43.72	2.892
43.94	6.978
44.16	5.088
44.38	3.382
44.6	2.546
44.82	5.18
45.04	27.184
45.26	9.093
45.48	2.405
45.7	14.761
45.92	0.266
46.14	10.494
46.36	23.744
46.58	15.367
46.8	12.375
47.02	5.667
47.24	6.658
47.46	17.958
47.68	14.258
47.9	8.35
48.12	7.57
48.34	11.428
48.56	7.491
48.78	13.652
49	8.635
49.22	18.811
49.44	8.498
49.66	17.267
49.88	14.264
50.1	0.819
50.32	0.606
50.54	3.36
50.76	12.216
50.98	9.349
51.2	12.138
51.42	8.659
51.64	5.045
51.86	0.233
52.08	7.434
52.3	7.5
52.52	11.152
52.74	9.435
52.96	1.12
53.18	13.431
53.4	7.466
53.62	14.892
53.84	19.113
54.06	0.22
54.28	8.173
54.5	15.569
54.72	12.179
54.94	11.905
55.16	8.878
55.38	10.189
55.6	13.562
55.82	5.224
56.04	5.062
56.26	9.849
56.48	7.589
56.7	8.073
56.92	6.965
57.14	5.056
57.36	4.615
57.58	15.591
57.8	15.061
58.02	10.659
58.24	13.77
58.46	3.433
58.68	0.606
58.9	11.186
59.12	26.119
59.34	8.19
59.56	10.13
59.78	8.183
60	0.598
60.22	7.386
60.44	8.434
60.66	13.476
60.88	6.847
61.1	4.831
61.32	12.197
61.54	20.152
61.76	13.954
61.98	12.74
62.2	11.433
62.42	7.804
62.64	21.781
62.86	0.828
63.08	0.953
63.3	3.125
63.52	6.389
63.74	8.712
63.96	6.669
64.18	10.711
64.4	4.733
64.62	6.799
64.84	13.082
65.06	2.253
65.28	13.143
65.5	22.92
65.72	10.916
65.94	12.678
66.16	5.555
66.38	6.602
66.6	15.969
66.82	7.082
67.04	1.566
67.26	13.372
67.48	13.949
67.7	6.054
67.92	12.237
68.14	18.314
68.36	12.534
68.58	9.629
68.8	0.574
69.02	1.632
69.24	19.975
69.46	1.702
69.68	0.108
69.9	9.554
70.12	13.592
70.34	7.843
70.56	1.795
70.78	19.76
71	11.65
71.22	7.726
71.44	10.86
71.66	7.685
71.88	16.849
72.1	6.848
72.32	5.77
72.54	2.774
72.76	10.512
72.98	6.752
73.2	12.774
73.42	11.874
73.64	8.15
73.86	15.172
74.08	7.123
74.3	10.032
74.52	11.791
74.74	2.068
74.96	8.552
75.18	14.053
75.4	21.998
75.62	13.106
75.84	18.268
76.06	8.847
76.28	8.763
76.5	15.54
76.72	7.566
76.94	2.476
77.16	8.139
77.38	7.847
77.6	18.353
77.82	8.391
78.04	9.538
78.26	10.305
78.48	8.577
78.7	1.62
78.92	2.193
79.14	2.919
79.36	8.938
79.58	17.278
79.8	15.287
80.02	6.367
80.24	14.494
80.46	12.267
80.68	0.213
80.9	0.184
81.12	11.879
81.34	17.711
81.56	0.79
81.78	5.952
82	17.796
82.22	13
82.44	15.097
82.66	7.001
82.88	8.557
83.1	3.588
83.32	12.187
83.54	15.152
83.76	5.116
83.98	16.043
84.2	5.927
84.42	5.916
84.64	3.558
84.86	0.635
85.08	14.458
85.3	14.267
85.52	4.053
85.74	1.896
85.96	7.927
86.18	6.982
86.4	7.937
86.62	0.992
86.84	11.398
87.06	1.543
87.28	2.712
87.5	4.838
87.72	15.669
87.94	2.799
88.16	8.379
88.38	10.873
88.6	14.298
88.82	10.315
89.04	5.411
89.26	8.721
89.48	9.25
89.7	7.125
89.92	13.142
