Measurement: Powder, Xray Data XY Processed
Mineral: Siderite
Rruff sample: R040034
Ideal chemistry: Fe^2+^CO_3_
Locality: Pribram, Czech Republic
Source: University of Arizona Mineral Museum
Description: Group of tan colored flattened rhombohedra
Diffraction sample description: Powder
Measured chemistry: (Fe_0.72_Mg_0.24_Mn_0.03_Ca_0.01_)_Î£=1_C_1.00_O_3_; CO_2_ estimated by difference
Cell parameters: a: 4.6819(2) b: 4.6819(2) c: 15.3031(8) alpha: 90. beta: 90. gamma: 120. volume: 290.50(2) crystal system: hexagonal
x	intensity
5	0
5.22	38.789
5.44	30.016
5.66	33.678
5.88	16.04
6.1	35.018
6.32	3.366
6.54	22.566
6.76	24.811
6.98	11.304
7.2	54.432
7.42	32.173
7.64	35.918
7.86	24.859
8.08	24.178
8.3	7.492
8.52	47.015
8.74	37.83
8.96	21.914
9.18	24.746
9.4	2.388
9.62	16.738
9.84	27.58
10.06	13.029
10.28	46.87
10.5	10.042
10.72	42.479
10.94	1.314
11.16	54.007
11.38	31.126
11.6	42.374
11.82	35.83
12.04	11.339
12.26	63.239
12.48	35.659
12.7	34.836
12.92	25.659
13.14	41.926
13.36	4.94
13.58	27.777
13.8	19.489
14.02	14.081
14.24	28.4
14.46	13.417
14.68	33.929
14.9	20.465
15.12	0.855
15.34	49.27
15.56	21.007
15.78	39.919
16	35.027
16.22	21.277
16.44	25.226
16.66	14.226
16.88	9.255
17.1	41.651
17.32	22.464
17.54	12.165
17.76	52.53
17.98	27.48
18.2	32.715
18.42	45.818
18.64	22.521
18.86	39.061
19.08	13.627
19.3	42.695
19.52	10.941
19.74	30.74
19.96	38.018
20.18	27.415
20.4	31.066
20.62	51.196
20.84	33.115
21.06	1.307
21.28	13.395
21.5	38.692
21.72	24.279
21.94	42.062
22.16	24.345
22.38	31.406
22.6	8.855
22.82	13.214
23.04	36.823
23.26	14.363
23.48	44.754
23.7	32.915
23.92	7.427
24.14	76.859
24.36	19.276
24.58	23.737
24.8	50.159
25.02	35.19
25.24	35.128
25.46	32.914
25.68	19.151
25.9	32.787
26.12	54.706
26.34	25.045
26.56	54.364
26.78	30.351
27	27.426
27.22	53.55
27.44	16.763
27.66	23.313
27.88	58.518
28.1	16.649
28.32	39.611
28.54	21.264
28.76	38.399
28.98	59.669
29.2	21.32
29.42	7.062
29.64	49.278
29.86	28.787
30.08	55.173
30.3	36.037
30.52	9.497
30.74	23.293
30.96	53.155
31.18	27.579
31.4	19.427
31.62	33.427
31.84	85.468
32.06	133.42
32.28	2190.05
32.5	64.169
32.72	35.482
32.94	13.817
33.16	26.643
33.38	25.303
33.6	2.532
33.82	1.699
34.04	37.567
34.26	14.328
34.48	18.801
34.7	15.557
34.92	32.816
35.14	20.934
35.36	45.518
35.58	36.615
35.8	25.278
36.02	13.455
36.24	21.937
36.46	29.706
36.68	28.454
36.9	48.369
37.12	25.997
37.34	42.717
37.56	38.278
37.78	21.047
38	28.998
38.22	3.748
38.44	60.178
38.66	38.631
38.88	23.1
39.1	26.829
39.32	14.568
39.54	12.973
39.76	27.99
39.98	40.569
40.2	29.854
40.42	59.668
40.64	33.973
40.86	51.124
41.08	9.338
41.3	34.4
41.52	14.954
41.74	47.354
41.96	48.996
42.18	16.232
42.4	15.966
42.62	108.75
42.84	28.79
43.06	8.387
43.28	9.7
43.5	26.597
43.72	31.46
43.94	40.857
44.16	28.095
44.38	22.503
44.6	38.781
44.82	14.95
45.04	20.153
45.26	32.865
45.48	19.617
45.7	27.364
45.92	9.18
46.14	46.958
46.36	125.525
46.58	43.5
46.8	27.528
47.02	30.65
47.24	15.044
47.46	0.065
47.68	11.992
47.9	47.02
48.12	49.65
48.34	37.495
48.56	25.356
48.78	33.407
49	11.596
49.22	16.062
49.44	25.575
49.66	20.46
49.88	11.497
50.1	43.863
50.32	24.205
50.54	13.555
50.76	53.143
50.98	63.882
51.2	40.289
51.42	38.542
51.64	19.537
51.86	50.248
52.08	29.851
52.3	37.319
52.52	37.559
52.74	57.312
52.96	150.912
53.18	102.814
53.4	24.353
53.62	27.112
53.84	28.724
54.06	43.282
54.28	16.331
54.5	24.198
54.72	26.885
54.94	0.952
55.16	34.492
55.38	31.632
55.6	15.257
55.82	35.545
56.04	25.702
56.26	58.803
56.48	39.161
56.7	72.787
56.92	68.771
57.14	12.858
57.36	15.5
57.58	16.513
57.8	10.27
58.02	15.519
58.24	28.772
58.46	22.129
58.68	33.214
58.9	11.324
59.12	28.79
59.34	31.259
59.56	22.352
59.78	54.269
60	46.484
60.22	47.073
60.44	10.069
60.66	7.468
60.88	46.482
61.1	44.713
61.32	60.119
61.54	12.628
61.76	41.379
61.98	43.207
62.2	35.332
62.42	35.595
62.64	39.83
62.86	22.205
63.08	61.484
63.3	58.612
63.52	40.716
63.74	7.558
63.96	16.345
64.18	45.988
64.4	14.637
64.62	19.15
64.84	41.567
65.06	67.37
65.28	37.155
65.5	33.287
65.72	54.9
65.94	48.863
66.16	19.813
66.38	42.009
66.6	53.956
66.82	13.42
67.04	18.07
67.26	96.939
67.48	99.903
67.7	14.65
67.92	48.064
68.14	25.96
68.36	59.639
68.58	49.317
68.8	29.07
69.02	49.329
69.24	1.214
69.46	1.64
69.68	39.405
69.9	35.474
70.12	13.641
70.34	28.086
70.56	6.026
70.78	26.698
71	17.396
71.22	29.892
71.44	9.162
71.66	40.99
71.88	26.952
72.1	28.199
72.32	24.2
72.54	30.378
72.76	22.32
72.98	14.535
73.2	16.633
73.42	16.571
73.64	1.565
73.86	30.145
74.08	7.849
74.3	31.747
74.52	38.964
74.74	33.484
74.96	46.865
75.18	21.885
75.4	0.794
75.62	47.884
75.84	36.859
76.06	57.444
76.28	11.392
76.5	29.003
76.72	31.378
76.94	20.539
77.16	54.885
77.38	16.128
77.6	11.983
77.82	63.276
78.04	23.293
78.26	78.994
78.48	44.982
78.7	24.708
78.92	12.037
79.14	37.9
79.36	7.604
79.58	22.455
79.8	54.805
80.02	3.363
80.24	13.603
80.46	23.115
80.68	31.672
80.9	26.548
81.12	33.827
81.34	14.547
81.56	37.351
81.78	13.18
82	9.969
82.22	17.563
82.44	5.345
82.66	2.854
82.88	9.871
83.1	30.133
83.32	4.983
83.54	23.946
83.76	24.552
83.98	28.538
84.2	14.531
84.42	4.087
84.64	20.988
84.86	14.265
85.08	44.145
85.3	30.122
85.52	11.52
85.74	30.225
85.96	19.456
86.18	12.779
86.4	27.26
86.62	59.428
86.84	48.254
87.06	19.676
87.28	29.029
87.5	34.016
87.72	25.654
87.94	39.998
88.16	20.176
88.38	39.765
88.6	39.27
88.82	27.547
89.04	12.247
89.26	17.406
89.48	46.201
89.7	33.49
89.92	14.27
