Measurement: Powder, Xray Data XY Processed
Mineral: Sillimanite
Rruff sample: R060080
Ideal chemistry: Al_2_OSiO_4_
Locality: Pein Pyit, Mogok, Burma
Source: Marcus Origlieri
Description: Light tan colored water-worn pebble
Diffraction sample description: Powder
Measured chemistry: (Al_1.99_Fe^3+^_0.01_)_Î£=2_Si_1.00_O_5_
Cell parameters: a: 7.4847(3) b: 7.6720(2) c: 5.7700(2) alpha: 90 beta: 90 gamma: 90 volume: 331.33(1) crystal system: orthorhombic
x	intensity
5	0
5.22	6.473
5.44	16.408
5.66	13.239
5.88	13.285
6.1	2.966
6.32	2.762
6.54	0.687
6.76	11.566
6.98	12.376
7.2	6.111
7.42	6.108
7.64	9.756
7.86	0.449
8.08	2.329
8.3	0.761
8.52	3.072
8.74	11.593
8.96	11.949
9.18	6.317
9.4	5.88
9.62	10.502
9.84	8.425
10.06	2.876
10.28	0.885
10.5	7.171
10.72	7.071
10.94	10.12
11.16	6.006
11.38	8.07
11.6	5.164
11.82	6.889
12.04	3.884
12.26	10.883
12.48	3.229
12.7	4.964
12.92	5.917
13.14	11.071
13.36	4.114
13.58	6.333
13.8	2.887
14.02	1.313
14.24	2.384
14.46	8.316
14.68	5.442
14.9	11.383
15.12	3.15
15.34	0.916
15.56	1.842
15.78	0.164
16	4.646
16.22	1.572
16.44	29.469
16.66	14.525
16.88	10.638
17.1	0.127
17.32	1.107
17.54	3.491
17.76	6.696
17.98	5.991
18.2	0.232
18.42	10.34
18.64	6.479
18.86	4.616
19.08	1.464
19.3	11.594
19.52	8.807
19.74	2.78
19.96	0.615
20.18	1.668
20.4	3.609
20.62	1.34
20.84	2.817
21.06	3.826
21.28	7.92
21.5	7.24
21.72	1.149
21.94	4.978
22.16	1.866
22.38	1.142
22.6	4.795
22.82	1.731
23.04	8.838
23.26	22.837
23.48	13.068
23.7	18.385
23.92	13.925
24.14	2.634
24.36	6.218
24.58	1.259
24.8	3.181
25.02	5.515
25.24	2.896
25.46	7.138
25.68	7.399
25.9	37.683
26.12	991.02
26.34	46.849
26.56	324.134
26.78	7.399
27	9.974
27.22	9.686
27.44	7.42
27.66	6.126
27.88	10.722
28.1	5.428
28.32	4.921
28.54	4.239
28.76	3.313
28.98	11.573
29.2	5.579
29.42	3.374
29.64	4.108
29.86	3.914
30.08	2.844
30.3	5.619
30.52	2.851
30.74	10.936
30.96	123.109
31.18	10.552
31.4	14.62
31.62	2.22
31.84	10.963
32.06	3.85
32.28	3.196
32.5	2.158
32.72	1.403
32.94	4.081
33.16	9.276
33.38	98.577
33.6	10.729
33.82	9.799
34.04	0.256
34.26	0.653
34.48	2.551
34.7	5.553
34.92	2.598
35.14	10.717
35.36	125.744
35.58	5.686
35.8	7.749
36.02	2.452
36.24	0.294
36.46	1.355
36.68	4.723
36.9	9.976
37.12	339.204
37.34	16.143
37.56	8.222
37.78	6.19
38	8.189
38.22	1.124
38.44	0.081
38.66	2.966
38.88	8.003
39.1	20.746
39.32	7.407
39.54	17.21
39.76	9.035
39.98	9.602
40.2	6.315
40.42	0.661
40.64	11.316
40.86	128.441
41.08	73.571
41.3	11.424
41.52	3.073
41.74	4.051
41.96	1.11
42.18	1.818
42.4	2.298
42.62	11.666
42.84	55.794
43.06	9.974
43.28	18.256
43.5	5.152
43.72	5.398
43.94	4.726
44.16	2.099
44.38	2.71
44.6	5.387
44.82	5.323
45.04	4.41
45.26	2.358
45.48	0.595
45.7	12.164
45.92	6.148
46.14	9.11
46.36	3.86
46.58	0.644
46.8	2.977
47.02	5.857
47.24	1.56
47.46	16.444
47.68	1.276
47.9	2.018
48.12	7.991
48.34	4.897
48.56	15.775
48.78	17.618
49	2.574
49.22	4.134
49.44	1.265
49.66	18.674
49.88	8.749
50.1	9.834
50.32	7.962
50.54	5.89
50.76	5.338
50.98	4.559
51.2	8.87
51.42	2.319
51.64	10.407
51.86	1.489
52.08	0.303
52.3	6.27
52.52	0.158
52.74	0.839
52.96	5.664
53.18	5.279
53.4	5.043
53.62	83.847
53.84	33.544
54.06	15.762
54.28	14.1
54.5	66.357
54.72	14.715
54.94	3.039
55.16	6.314
55.38	5.517
55.6	1.955
55.82	7.136
56.04	0.832
56.26	5.01
56.48	4.85
56.7	5.194
56.92	1.927
57.14	4.951
57.36	12.128
57.58	60.992
57.8	162.85
58.02	7.417
58.24	3.399
58.46	2.32
58.68	13.847
58.9	10.946
59.12	26.949
59.34	6.908
59.56	0.538
59.78	5.961
60	4.846
60.22	5.77
60.44	3.746
60.66	8.738
60.88	48.949
61.1	103.896
61.32	3.087
61.54	4.205
61.76	4.75
61.98	8.056
62.2	5.262
62.42	0.443
62.64	4.958
62.86	2.053
63.08	5.097
63.3	7.852
63.52	8.424
63.74	1.21
63.96	6.246
64.18	12.298
64.4	6.131
64.62	16.073
64.84	8.03
65.06	8.695
65.28	1.881
65.5	7.111
65.72	110.142
65.94	25.188
66.16	5.223
66.38	3.21
66.6	2.083
66.82	0.27
67.04	18.357
67.26	20.464
67.48	0.622
67.7	1.38
67.92	8.637
68.14	7.628
68.36	7.161
68.58	1.263
68.8	6.044
69.02	6.511
69.24	11.262
69.46	8.025
69.68	8.742
69.9	7.275
70.12	9.916
70.34	8.601
70.56	140.823
70.78	97.565
71	32.301
71.22	25.374
71.44	3.637
71.66	4.923
71.88	7.148
72.1	12.732
72.32	7.073
72.54	7.3
72.76	5.76
72.98	2.45
73.2	8.029
73.42	1.913
73.64	0.732
73.86	3.386
74.08	105.636
74.3	80.17
74.52	30.568
74.74	19.271
74.96	8.297
75.18	0.704
75.4	8.71
75.62	8.801
75.84	5.927
76.06	2.88
76.28	12.271
76.5	1.266
76.72	0.853
76.94	3.762
77.16	8.096
77.38	14.178
77.6	11.449
77.82	1.729
78.04	7.038
78.26	4.265
78.48	2.7
78.7	15.906
78.92	14.316
79.14	3.433
79.36	11.029
79.58	3.118
79.8	1.137
80.02	7.138
80.24	2.185
80.46	0.835
80.68	7.157
80.9	6.818
81.12	1.749
81.34	4.197
81.56	8.922
81.78	2.142
82	0.05
82.22	6.338
82.44	14.856
82.66	6.846
82.88	0.007
83.1	1.11
83.32	1.259
83.54	4.408
83.76	4.437
83.98	7.455
84.2	4.459
84.42	1.463
84.64	7.236
84.86	7.876
85.08	4.892
85.3	2.962
85.52	6.948
85.74	0.928
85.96	1.942
86.18	4.961
86.4	0.009
86.62	6.182
86.84	2.997
87.06	0.985
87.28	28.14
87.5	8.935
87.72	2.724
87.94	4.603
88.16	6.455
88.38	0.223
88.6	6.151
88.82	9.067
89.04	5.801
89.26	8.206
89.48	13.09
89.7	21.238
89.92	4.863
