Measurement: Powder, Xray Data XY Processed
Mineral: Simpsonite
Rruff sample: R050629
Ideal chemistry: Al_4_Ta^5+^_3_O_13_(OH)
Locality: Equador, Rio Grande do Norte, Brazil
Source: Gemological Center
Description: Yellow fragment
Diffraction sample description: Powder
Measured chemistry: Al_4.00_(Ta_2.93_Nb_0.07_)_Î£=3_O_13_(OH)
Cell parameters: a: 7.3838(3) b: 7.3838(3) c: 4.5146(2) alpha: 90. beta: 90. gamma: 120. volume: 213.16(1) crystal system: hexagonal
x	intensity
5	0
5.22	3.141
5.44	10.504
5.66	11.711
5.88	5.643
6.1	4.614
6.32	9.122
6.54	11.427
6.76	16.926
6.98	4.026
7.2	12.085
7.42	13.005
7.64	6.352
7.86	4.49
8.08	11.611
8.3	12.077
8.52	6.784
8.74	5.969
8.96	5.223
9.18	6.028
9.4	4.11
9.62	8.818
9.84	7.814
10.06	6.418
10.28	9.227
10.5	4.208
10.72	4.665
10.94	14.559
11.16	9.451
11.38	10.984
11.6	7.039
11.82	0.884
12.04	11.119
12.26	1.528
12.48	9.592
12.7	6.684
12.92	1.353
13.14	1.21
13.36	5.864
13.58	11.934
13.8	69.2
14.02	15.492
14.24	12.419
14.46	13.537
14.68	1.379
14.9	7.661
15.12	5.131
15.34	5.293
15.56	10.466
15.78	0.87
16	0.051
16.22	6.184
16.44	6.01
16.66	0.106
16.88	12.018
17.1	8.143
17.32	2.922
17.54	4.456
17.76	6.235
17.98	3.183
18.2	2.714
18.42	9.423
18.64	1.069
18.86	11.699
19.08	9.619
19.3	3.809
19.52	3.61
19.74	38.142
19.96	8.691
20.18	0.062
20.4	8.231
20.62	4.374
20.84	9.818
21.06	5.891
21.28	6.209
21.5	0.049
21.72	18.952
21.94	10.841
22.16	10.077
22.38	4.282
22.6	9.51
22.82	9.058
23.04	2.635
23.26	7.983
23.48	7.57
23.7	11.406
23.92	13.778
24.14	647.598
24.36	18.62
24.58	17.907
24.8	8.121
25.02	8.361
25.24	3.582
25.46	7.85
25.68	8.182
25.9	2.46
26.12	9.654
26.34	12.801
26.56	11.243
26.78	11.426
27	7.568
27.22	8.714
27.44	6.998
27.66	10.29
27.88	65.342
28.1	9.772
28.32	7.42
28.54	0.89
28.76	7.383
28.98	18.497
29.2	9.506
29.42	8.16
29.64	2.948
29.86	4.427
30.08	6.112
30.3	6.482
30.52	11.249
30.74	9.368
30.96	20.323
31.18	31.293
31.4	77.145
31.62	16.876
31.84	11.518
32.06	4.538
32.28	1.219
32.5	5.083
32.72	5.461
32.94	8.594
33.16	0.309
33.38	16.288
33.6	4.282
33.82	5.31
34.04	10.389
34.26	34.139
34.48	56.379
34.7	3.316
34.92	9.384
35.14	7.767
35.36	1.09
35.58	9.053
35.8	2.176
36.02	0.87
36.24	4.098
36.46	11.102
36.68	5.953
36.9	14.806
37.12	38.124
37.34	26.214
37.56	3.717
37.78	17.574
38	7.626
38.22	8.195
38.44	0.323
38.66	6.793
38.88	6.898
39.1	5.009
39.32	8.067
39.54	10.782
39.76	2.721
39.98	11.734
40.2	2.681
40.42	0.681
40.64	11.179
40.86	6.906
41.08	3.708
41.3	2.53
41.52	18.154
41.74	0.039
41.96	11.983
42.18	4.889
42.4	283.841
42.62	26.488
42.84	8.522
43.06	6.446
43.28	4.709
43.5	13.304
43.72	6.513
43.94	7.71
44.16	14.021
44.38	15.263
44.6	6.272
44.82	10.184
45.04	7.454
45.26	0.592
45.48	5.208
45.7	16.97
45.92	11.393
46.14	11.201
46.36	7.995
46.58	7.784
46.8	5.981
47.02	7.102
47.24	52.199
47.46	2.385
47.68	13.744
47.9	8.669
48.12	10.698
48.34	6.764
48.56	3.118
48.78	12.069
49	9.197
49.22	16.691
49.44	16.919
49.66	13.753
49.88	9.781
50.1	12.279
50.32	5.22
50.54	7.162
50.76	17.344
50.98	10.233
51.2	11.398
51.42	21.308
51.64	28.168
51.86	7.192
52.08	5.2
52.3	8.301
52.52	5.563
52.74	9.139
52.96	5.187
53.18	1.054
53.4	9.84
53.62	8.59
53.84	14.435
54.06	0.908
54.28	6.473
54.5	1.967
54.72	1.199
54.94	3.879
55.16	1.168
55.38	6.968
55.6	141.751
55.82	322.261
56.04	11.344
56.26	0.412
56.48	13.791
56.7	6.095
56.92	8.395
57.14	13.176
57.36	6.897
57.58	20.322
57.8	13.187
58.02	4.883
58.24	4.89
58.46	0.856
58.68	8.641
58.9	3.694
59.12	17.684
59.34	3.559
59.56	7.584
59.78	24.979
60	3.496
60.22	10.402
60.44	2.189
60.66	1.019
60.88	2.062
61.1	6.405
61.32	3.76
61.54	61.665
61.76	16.014
61.98	13.26
62.2	5.732
62.42	3.817
62.64	3.863
62.86	0.071
63.08	6.995
63.3	22.445
63.52	80.262
63.74	5.965
63.96	3.223
64.18	1.83
64.4	0.68
64.62	8.57
64.84	5
65.06	4.383
65.28	8.205
65.5	4.943
65.72	3.388
65.94	8.112
66.16	2.639
66.38	2.262
66.6	17.322
66.82	24.598
67.04	441.914
67.26	165.675
67.48	15.26
67.7	9.353
67.92	4.576
68.14	0.943
68.36	1.708
68.58	4.925
68.8	6.552
69.02	12.626
69.24	18.64
69.46	10.36
69.68	2.257
69.9	10.315
70.12	2.752
70.34	4.235
70.56	25.021
70.78	28.5
71	6.671
71.22	6.352
71.44	3.102
71.66	10.079
71.88	9.125
72.1	8.379
72.32	9.935
72.54	1.979
72.76	5.719
72.98	6.864
73.2	6.764
73.42	5.808
73.64	11.908
73.86	3.864
74.08	15.034
74.3	18.081
74.52	3.95
74.74	10.551
74.96	9.949
75.18	0.112
75.4	6.987
75.62	10.039
75.84	4.154
76.06	7.898
76.28	10.865
76.5	5.642
76.72	2.57
76.94	3.332
77.16	0.473
77.38	17.791
77.6	50.869
77.82	22.827
78.04	7.732
78.26	1.585
78.48	1.38
78.7	2.646
78.92	4.373
79.14	8.769
79.36	13.759
79.58	8.444
79.8	9.105
80.02	5.945
80.24	5.788
80.46	6.789
80.68	7.013
80.9	60.194
81.12	21.503
81.34	6.883
81.56	9.457
81.78	0.433
82	1.19
82.22	3.698
82.44	9.683
82.66	12.629
82.88	9.655
83.1	2.475
83.32	9.088
83.54	6.8
83.76	6.682
83.98	9.907
84.2	10.365
84.42	41.149
84.64	46.391
84.86	0.414
85.08	10.83
85.3	2.634
85.52	3.128
85.74	12.228
85.96	14.709
86.18	4.138
86.4	20.577
86.62	1.656
86.84	6.168
87.06	10.28
87.28	11.685
87.5	9.404
87.72	7.399
87.94	11.18
88.16	5.385
88.38	9.036
88.6	6.97
88.82	7.13
89.04	18.4
89.26	5.921
89.48	5.091
89.7	5.766
89.92	0.193
