Measurement: Powder, Xray Data XY Processed
Mineral: Skutterudite
Rruff sample: R050593
Ideal chemistry: Co^3+^As_3_
Locality: Bou Azzer, Morocco
Source: Marcus Origlieri
Description: Gray metallic, massive to coarsely crystalline
Diffraction sample description: Powder
Measured chemistry: (Co_0.86_Fe_0.11_Ni_0.07_)_Σ=1.04_(As_2.93_S_0.07_)_Σ=3.00_
Cell parameters: a: 8.2149(4) b: 8.2149(4) c: 8.2149(4) alpha: 90. beta: 90. gamma: 90. volume: 554.38(8) crystal system: cubic
x	intensity
5	0
5.22	13.086
5.44	2.675
5.66	10.061
5.88	9.564
6.1	8.014
6.32	8.061
6.54	15.217
6.76	8.975
6.98	1.211
7.2	8.521
7.42	5.671
7.64	7.964
7.86	9.689
8.08	7.149
8.3	0.129
8.52	4.93
8.74	12.546
8.96	3.174
9.18	2.506
9.4	6.055
9.62	11.959
9.84	0.66
10.06	20.598
10.28	4.579
10.5	14.544
10.72	9.038
10.94	3.228
11.16	16.459
11.38	1.26
11.6	5.8
11.82	20.99
12.04	19.13
12.26	11.013
12.48	16.465
12.7	5.811
12.92	0.899
13.14	14.659
13.36	1.188
13.58	7.249
13.8	6.469
14.02	4.071
14.24	8.284
14.46	0.92
14.68	5.432
14.9	8.777
15.12	14.875
15.34	106.227
15.56	28.278
15.78	15.206
16	0.939
16.22	7.512
16.44	4.317
16.66	1.524
16.88	7.196
17.1	5.074
17.32	10.572
17.54	11.095
17.76	12.882
17.98	3.479
18.2	7.732
18.42	7.455
18.64	13.229
18.86	0.047
19.08	11.809
19.3	12.838
19.52	5.368
19.74	10.771
19.96	11.649
20.18	12.662
20.4	0.714
20.62	6.086
20.84	11.028
21.06	5.851
21.28	1.717
21.5	6.237
21.72	54.001
21.94	2.817
22.16	9.959
22.38	1.018
22.6	7.636
22.82	3.036
23.04	11.222
23.26	10.823
23.48	18.523
23.7	1.591
23.92	0.216
24.14	19.099
24.36	20.879
24.58	0.297
24.8	11.69
25.02	3.432
25.24	14.703
25.46	2.884
25.68	5.801
25.9	32.335
26.12	5.762
26.34	6.089
26.56	20.223
26.78	33.914
27	2.032
27.22	1.87
27.44	7.311
27.66	16.935
27.88	4.021
28.1	0.559
28.32	6.559
28.54	23.116
28.76	15.756
28.98	15.135
29.2	26.856
29.42	1.283
29.64	18.62
29.86	2.108
30.08	3.964
30.3	12.637
30.52	3.872
30.74	20.035
30.96	21.148
31.18	24.547
31.4	19.682
31.62	11.23
31.84	14.462
32.06	7.42
32.28	17.133
32.5	30.787
32.72	17.373
32.94	19.104
33.16	8.043
33.38	2.932
33.6	2.48
33.82	6.25
34.04	11.969
34.26	8.525
34.48	168.667
34.7	413.054
34.92	25.338
35.14	1.698
35.36	9.771
35.58	7.602
35.8	13.822
36.02	20.458
36.24	23.762
36.46	11.856
36.68	16.969
36.9	17.342
37.12	18.483
37.34	6.641
37.56	0.816
37.78	8.665
38	23.102
38.22	0.608
38.44	14.167
38.66	8.433
38.88	12.825
39.1	15.035
39.32	8.572
39.54	25.777
39.76	0.495
39.98	7.103
40.2	3.411
40.42	17.97
40.64	2.014
40.86	17.203
41.08	89.862
41.3	138.011
41.52	11.195
41.74	8.93
41.96	25.967
42.18	25.089
42.4	21.606
42.62	17.41
42.84	15.791
43.06	4.329
43.28	15.05
43.5	4.209
43.72	13.235
43.94	2.07
44.16	16.341
44.38	4.89
44.6	35.555
44.82	14.214
45.04	0.835
45.26	1.491
45.48	13.965
45.7	24.986
45.92	25.665
46.14	0.113
46.36	17.278
46.58	20.014
46.8	7.648
47.02	45.892
47.24	19.115
47.46	1.304
47.68	19.345
47.9	12.685
48.12	9.094
48.34	10.723
48.56	11.633
48.78	16.69
49	7.619
49.22	21.92
49.44	17.519
49.66	150.406
49.88	49.136
50.1	12.034
50.32	0.731
50.54	21.772
50.76	1.787
50.98	2.269
51.2	14.448
51.42	6.266
51.64	26.994
51.86	13.93
52.08	9.63
52.3	53.422
52.52	24.229
52.74	8.586
52.96	15.907
53.18	7.945
53.4	6.878
53.62	17.729
53.84	1.456
54.06	9.327
54.28	3.738
54.5	12.671
54.72	94.03
54.94	58.111
55.16	2.105
55.38	0.333
55.6	6.77
55.82	1.459
56.04	3.538
56.26	1.584
56.48	5.234
56.7	2.114
56.92	4.853
57.14	108.656
57.36	93.873
57.58	8.761
57.8	2.635
58.02	7.384
58.24	7.388
58.46	9.873
58.68	9.038
58.9	10.723
59.12	17.177
59.34	8.569
59.56	17.127
59.78	17.077
60	0.18
60.22	2.396
60.44	1.948
60.66	6.622
60.88	17.512
61.1	15.739
61.32	21.663
61.54	14.857
61.76	11.249
61.98	3.675
62.2	8.359
62.42	24.709
62.64	13.596
62.86	0.975
63.08	17.22
63.3	19.185
63.52	38.321
63.74	19.509
63.96	1.215
64.18	25.543
64.4	0.571
64.62	4.991
64.84	2.268
65.06	8.857
65.28	11.103
65.5	5.913
65.72	18.629
65.94	9.347
66.16	10.34
66.38	50.04
66.6	45.122
66.82	0.919
67.04	10.841
67.26	24.382
67.48	6.401
67.7	5.308
67.92	15.805
68.14	9.488
68.36	8.437
68.58	39.032
68.8	6.731
69.02	28.191
69.24	8.068
69.46	2.056
69.68	32.229
69.9	1.544
70.12	25.75
70.34	7.449
70.56	28.083
70.78	0.314
71	4.404
71.22	17.74
71.44	2.971
71.66	25.479
71.88	1.667
72.1	6.214
72.32	10.53
72.54	12.812
72.76	9.642
72.98	8.565
73.2	3.765
73.42	7.184
73.64	13.246
73.86	0.049
74.08	7.065
74.3	12.398
74.52	3.875
74.74	22.319
74.96	27.822
75.18	3.331
75.4	12.158
75.62	6.737
75.84	1.034
76.06	26.513
76.28	6.325
76.5	18.343
76.72	31.329
76.94	13.759
77.16	25.253
77.38	24.373
77.6	24.361
77.82	3.266
78.04	2.865
78.26	9.22
78.48	29.272
78.7	22.588
78.92	41.983
79.14	46.388
79.36	18.96
79.58	36.16
79.8	35.282
80.02	24.323
80.24	1.087
80.46	6.2
80.68	20.739
80.9	0.616
81.12	76.133
81.34	15.778
81.56	1.206
81.78	26.489
82	8.261
82.22	8.039
82.44	11.854
82.66	17.121
82.88	4.289
83.1	15.161
83.32	30.25
83.54	11.867
83.76	0.164
83.98	17.892
84.2	20.688
84.42	19.473
84.64	14.246
84.86	1.401
85.08	36.921
85.3	27.111
85.52	19.739
85.74	1.899
85.96	16.959
86.18	15.212
86.4	18.27
86.62	7.08
86.84	3.165
87.06	14.165
87.28	24.969
87.5	35.058
87.72	0.332
87.94	0.367
88.16	23.05
88.38	24.276
88.6	10.914
88.82	9.155
89.04	39.738
89.26	20.021
89.48	35.963
89.7	9.263
89.92	0.25
