Measurement: Powder, Xray Data XY Processed
Mineral: Smithsonite
Rruff sample: R040051
Ideal chemistry: Zn^2+^CO_3_
Locality: Berg Aukas mine, Grootfontein, Namibia
Source: University of Arizona Mineral Museum
Description: Yellowish brown botryoidal groups
Diffraction sample description: Powder
Measured chemistry: (Zn_0.94_Ca_0.02_Mg_0.02_)C_1.01_O_3_
Cell parameters: a: 4.6560(2) b: 4.6560(2) c: 15.054(1) alpha: 90. beta: 90. gamma: 120. volume: 282.64(2) crystal system: hexagonal
x	intensity
5	0
5.22	12.757
5.44	17.226
5.66	10.822
5.88	16.88
6.1	10.994
6.32	1.12
6.54	17.525
6.76	7.415
6.98	23.293
7.2	17.874
7.42	24.477
7.64	4.097
7.86	1.626
8.08	4.408
8.3	5.511
8.52	3.02
8.74	1.549
8.96	6.126
9.18	6.936
9.4	1.181
9.62	3.852
9.84	16.595
10.06	1.501
10.28	9.356
10.5	9.93
10.72	14.849
10.94	7.955
11.16	0.952
11.38	6.132
11.6	10.156
11.82	7.714
12.04	5.442
12.26	8.044
12.48	3.35
12.7	4.285
12.92	0.477
13.14	2.59
13.36	9.446
13.58	12.495
13.8	0.557
14.02	2.531
14.24	3.438
14.46	15.725
14.68	1.307
14.9	4.743
15.12	15.72
15.34	0.959
15.56	12.008
15.78	4.148
16	8.882
16.22	2.344
16.44	8.298
16.66	9.598
16.88	5.753
17.1	4.957
17.32	3.797
17.54	7.89
17.76	14.216
17.98	16.237
18.2	8.23
18.42	11.805
18.64	3.676
18.86	5.52
19.08	4.396
19.3	6.177
19.52	13.925
19.74	11.121
19.96	7.439
20.18	8.771
20.4	14.615
20.62	11.424
20.84	12.25
21.06	9.787
21.28	8.854
21.5	2.635
21.72	13.032
21.94	7.207
22.16	25.114
22.38	5.031
22.6	34.943
22.82	4.374
23.04	14.058
23.26	5.266
23.48	1.579
23.7	0.353
23.92	7.854
24.14	0.363
24.36	17.485
24.58	15.316
24.8	35.767
25.02	785.36
25.24	116.134
25.46	39.211
25.68	22.867
25.9	12.574
26.12	0.073
26.34	11.737
26.56	0.325
26.78	0.581
27	8.204
27.22	20.323
27.44	17.056
27.66	3.527
27.88	1.727
28.1	0.798
28.32	5.989
28.54	0.95
28.76	6.939
28.98	6.587
29.2	1.016
29.42	32.438
29.64	11.251
29.86	8.26
30.08	12.462
30.3	0.498
30.52	6.017
30.74	1.308
30.96	0.677
31.18	3.956
31.4	15.517
31.62	23.502
31.84	20.283
32.06	23.68
32.28	83.499
32.5	2446.74
32.72	548.355
32.94	73.195
33.16	6.841
33.38	10.759
33.6	2.797
33.82	2.949
34.04	202.929
34.26	1.595
34.48	7.936
34.7	17.157
34.92	10.576
35.14	15.127
35.36	5.107
35.58	2.323
35.8	10.175
36.02	7.026
36.24	10.284
36.46	14.627
36.68	4.321
36.9	1.062
37.12	0.899
37.34	2.756
37.56	6.188
37.78	8.733
38	5.519
38.22	7.032
38.44	28.914
38.66	566.625
38.88	63.133
39.1	17.338
39.32	10.663
39.54	11.955
39.76	9.015
39.98	12.58
40.2	10.246
40.42	11.498
40.64	8.675
40.86	9.605
41.08	6.985
41.3	6.001
41.52	10.658
41.74	4.407
41.96	5.894
42.18	5.133
42.4	10.543
42.62	43.304
42.84	424.091
43.06	48.698
43.28	25.869
43.5	16.053
43.72	2.164
43.94	16.388
44.16	11.376
44.38	7.879
44.6	5.074
44.82	3.344
45.04	29.78
45.26	10.731
45.48	10.855
45.7	8.408
45.92	10.512
46.14	14.562
46.36	30.939
46.58	497.879
46.8	265.212
47.02	16.711
47.24	3.435
47.46	2.63
47.68	12.658
47.9	0.324
48.12	16.799
48.34	9.291
48.56	8.18
48.78	5.064
49	4.457
49.22	9.144
49.44	2.907
49.66	7.4
49.88	3.431
50.1	7.453
50.32	2.382
50.54	6.144
50.76	7.495
50.98	3.457
51.2	27.359
51.42	229.201
51.64	29.281
51.86	9.226
52.08	3.468
52.3	7.443
52.52	5.467
52.74	8.619
52.96	12.962
53.18	19.42
53.4	61.238
53.62	547.5
53.84	783.859
54.06	87.627
54.28	5.851
54.5	24.455
54.72	1.998
54.94	10.618
55.16	8.098
55.38	0.335
55.6	8.068
55.82	0.53
56.04	7.371
56.26	4.12
56.48	11.484
56.7	6.113
56.92	9.614
57.14	3.648
57.36	16.111
57.58	9.175
57.8	9.295
58.02	2.08
58.24	8.149
58.46	0.937
58.68	4.069
58.9	4.91
59.12	13.84
59.34	10.966
59.56	1.711
59.78	2.098
60	0.417
60.22	12.036
60.44	6.592
60.66	5.024
60.88	8.186
61.1	46.77
61.32	3.317
61.54	1.029
61.76	3.993
61.98	44.003
62.2	114.118
62.42	20.518
62.64	3.348
62.86	9.552
63.08	8.471
63.3	10.039
63.52	15.044
63.74	4.675
63.96	6.841
64.18	3.971
64.4	11.011
64.62	5.882
64.84	7.656
65.06	8.034
65.28	11.741
65.5	5.027
65.72	18.612
65.94	36.958
66.16	175.194
66.38	87.741
66.6	13.646
66.82	11.876
67.04	13.417
67.26	11.781
67.48	1.683
67.7	15.916
67.92	11.111
68.14	124.381
68.36	73.557
68.58	0.652
68.8	9.724
69.02	35.18
69.24	40.297
69.46	18.023
69.68	8.299
69.9	86.092
70.12	78.326
70.34	13.214
70.56	16.985
70.78	10.275
71	10.626
71.22	8.197
71.44	10.214
71.66	17.049
71.88	3.16
72.1	5.524
72.32	2.533
72.54	13.752
72.76	9.669
72.98	7.378
73.2	5.928
73.42	4.181
73.64	6.027
73.86	2.157
74.08	8.055
74.3	10.104
74.52	3.587
74.74	5.195
74.96	8.701
75.18	10.999
75.4	0.381
75.62	6.755
75.84	74.123
76.06	46.162
76.28	7.041
76.5	12.463
76.72	8.725
76.94	6.948
77.16	2.424
77.38	6.741
77.6	4.113
77.82	5.685
78.04	11.717
78.26	3.685
78.48	9.987
78.7	3.579
78.92	11.173
79.14	4.874
79.36	40.041
79.58	33.665
79.8	4.292
80.02	13.382
80.24	3.711
80.46	9.214
80.68	6.136
80.9	7.132
81.12	75.753
81.34	41.079
81.56	12.076
81.78	12.147
82	11.42
82.22	9.91
82.44	6.426
82.66	9.374
82.88	45.961
83.1	11.604
83.32	2.327
83.54	8.15
83.76	3.493
83.98	3.455
84.2	11.706
84.42	8.841
84.64	2.915
84.86	4.726
85.08	12.717
85.3	3.797
85.52	2.028
85.74	6.077
85.96	12.139
86.18	7.136
86.4	12.053
86.62	19.168
86.84	9.004
87.06	4.871
87.28	9.62
87.5	0.114
87.72	5.695
87.94	1.207
88.16	23.513
88.38	40.531
88.6	44.361
88.82	24.532
89.04	11.284
89.26	8.483
89.48	7.055
89.7	5.068
89.92	1.479
