Measurement: Powder, Xray Data XY Processed
Mineral: Sodalite
Rruff sample: R060416
Ideal chemistry: Na_4_Si_3_Al_3_O_12_Cl
Locality: Koksha Valley, Badakshan Province, Afghanistan
Source: Herb Obodda
Description: Colorless fragment
Diffraction sample description: Powder
Measured chemistry: Na_8.00_Al_6.00_Si_6.00_O_24_Cl_2.00_
Cell parameters: a: 8.88077(4) b: 8.88077(4) c: 8.88077(4) alpha: 90. beta: 90. gamma: 90. volume: 700.410(9) crystal system: cubic
x	intensity
5	0
5.22	10.849
5.44	15.3387
5.66	10.9418
5.88	6.94159
6.1	2.99416
6.32	0.559127
6.54	10.3598
6.76	7.4607
6.98	7.24274
7.2	10.0276
7.42	1.21218
7.64	9.54497
7.86	7.72673
8.08	10.0332
8.3	0.087661
8.52	1.2682
8.74	1.42279
8.96	5.58558
9.18	5.37864
9.4	3.64411
9.62	3.75477
9.84	7.98296
10.06	1.30516
10.28	6.35924
10.5	2.75508
10.72	1.22425
10.94	2.59515
11.16	1.04207
11.38	8.27487
11.6	2.45396
11.82	3.58471
12.04	0.317496
12.26	1.83821
12.48	4.93914
12.7	7.95836
12.92	8.96523
13.14	3.72997
13.36	4.65853
13.58	6.4681
13.8	4.5793
14.02	23.7088
14.24	53.86
14.46	11.7455
14.68	13.651
14.9	4.72393
15.12	6.72537
15.34	1.82644
15.56	4.97309
15.78	3.06163
16	5.05342
16.22	5.12861
16.44	5.92736
16.66	3.72966
16.88	0.19421
17.1	0.917304
17.32	3.10498
17.54	2.0523
17.76	4.55091
17.98	3.86307
18.2	0.22738
18.42	0.947102
18.64	2.96353
18.86	1.03205
19.08	2.95762
19.3	5.0302
19.52	0.968341
19.74	4.86251
19.96	5.85738
20.18	9.5778
20.4	8.4523
20.62	4.66477
20.84	2.69996
21.06	2.75927
21.28	3.87645
21.5	3.03022
21.72	2.22133
21.94	6.28878
22.16	10.5409
22.38	13.4442
22.6	0.166899
22.82	7.87128
23.04	6.43461
23.26	0.961903
23.48	1.65368
23.7	3.20418
23.92	4.7341
24.14	8.30654
24.36	8.97617
24.58	959.517
24.8	58.5763
25.02	9.46237
25.24	0.760208
25.46	1.89649
25.68	5.08385
25.9	1.6462
26.12	2.79256
26.34	8.15201
26.56	5.5506
26.78	8.81567
27	4.01048
27.22	4.08616
27.44	6.13459
27.66	0.967257
27.88	6.00615
28.1	5.01527
28.32	4.97651
28.54	1.04796
28.76	6.80241
28.98	1.85139
29.2	6.76704
29.42	5.89086
29.64	2.94956
29.86	5.92918
30.08	5.92612
30.3	7.10425
30.52	2.08014
30.74	2.98988
30.96	8.81171
31.18	1.81641
31.4	1.73984
31.62	3.73366
31.84	20.7539
32.06	8.63926
32.28	1.78282
32.5	1.04814
32.72	5.91714
32.94	0.041308
33.16	8.03244
33.38	2.0848
33.6	7.07349
33.82	0.092102
34.04	5.79403
34.26	2.52926
34.48	6.47706
34.7	7.15291
34.92	9.89617
35.14	190.83
35.36	5.79721
35.58	0.887922
35.8	1.86105
36.02	2.84288
36.24	5.93273
36.46	5.02069
36.68	3.03986
36.9	3.97029
37.12	0.003309
37.34	4.99116
37.56	3.04696
37.78	8.91755
38	102.842
38.22	9.95649
38.44	5.04305
38.66	1.01351
38.88	7.03289
39.1	3.17505
39.32	0.290016
39.54	0.342698
39.76	6.48006
39.98	4.54125
40.2	5.73263
40.42	12.8533
40.64	14.5732
40.86	2.39183
41.08	3.32678
41.3	1.28305
41.52	9.27712
41.74	4.31483
41.96	10.1713
42.18	0.829012
42.4	3.60978
42.62	0.682061
42.84	6.30729
43.06	17.2125
43.28	380.254
43.5	13.3524
43.72	7.27919
43.94	1.3309
44.16	2.36829
44.38	1.53304
44.6	8.68307
44.82	2.84426
45.04	1.95006
45.26	3.98442
45.48	2.54532
45.7	64.7862
45.92	5.88587
46.14	7.18077
46.36	3.99482
46.58	6.12619
46.8	5.25483
47.02	3.26734
47.24	0.257785
47.46	5.22562
47.68	1.34623
47.9	0.043902
48.12	37.7505
48.34	10.8992
48.56	4.82445
48.78	6.93119
49	3.90781
49.22	3.86891
49.44	1.93281
49.66	0.026442
49.88	9.03166
50.1	2.92508
50.32	17.3067
50.54	19.4699
50.76	4.49868
50.98	8.56622
51.2	2.51475
51.42	5.51305
51.64	1.52363
51.86	5.51017
52.08	3.51029
52.3	8.65985
52.52	20.7844
52.74	21.6137
52.96	8.49314
53.18	4.58287
53.4	2.56612
53.62	7.57598
53.84	4.7026
54.06	3.24208
54.28	2.90784
54.5	5.93482
54.72	5.74439
54.94	3.65743
55.16	11.4561
55.38	0.670634
55.6	1.15415
55.82	4.98578
56.04	5.9777
56.26	9.81779
56.48	0.75567
56.7	4.45789
56.92	13.5189
57.14	10.6216
57.36	4.68063
57.58	0.375704
57.8	6.34603
58.02	0.674317
58.24	6.36654
58.46	1.68993
58.68	5.40197
58.9	29.6499
59.12	7.57304
59.34	1.77457
59.56	2.6774
59.78	4.52112
60	10.5913
60.22	6.68657
60.44	2.70787
60.66	0.802576
60.88	30.8263
61.1	1.92485
61.32	8.58571
61.54	4.54203
61.76	1.28719
61.98	8.20121
62.2	3.29439
62.42	2.36735
62.64	0.278606
62.86	25.3257
63.08	4.2418
63.3	2.15529
63.52	1.05778
63.74	4.07722
63.96	1.15057
64.18	1.77285
64.4	3.42095
64.62	13.3637
64.84	24.4735
65.06	5.61767
65.28	4.65912
65.5	1.53489
65.72	0.474325
65.94	0.107582
66.16	3.92566
66.38	2.87444
66.6	12.8475
66.82	10.7964
67.04	1.70012
67.26	3.56792
67.48	10.4406
67.7	0.629665
67.92	0.418837
68.14	0.884039
68.36	8.73614
68.58	13.7794
68.8	7.9766
69.02	3.1689
69.24	1.10602
69.46	2.10403
69.68	4.19587
69.9	6.32988
70.12	3.30973
70.34	66.0827
70.56	14.7622
70.78	5.88203
71	2.82954
71.22	5.57352
71.44	0.50259
71.66	7.51717
71.88	5.87427
72.1	31.6502
72.32	22.9957
72.54	1.08293
72.76	4.10661
72.98	2.08014
73.2	0.806289
73.42	8.90079
73.64	5.99887
73.86	7.97182
74.08	10.9389
74.3	2.60521
74.52	3.58593
74.74	3.60674
74.96	2.56734
75.18	3.61792
75.4	2.80458
75.62	1.98674
75.84	5.04765
76.06	6.19694
76.28	8.36592
76.5	5.4034
76.72	7.42661
76.94	4.36416
77.16	5.29282
77.38	1.29475
77.6	5.16162
77.82	3.96235
78.04	1.75064
78.26	1.50923
78.48	0.14991
78.7	1.05344
78.92	7.15447
79.14	15.0247
79.36	14.1601
79.58	18.1717
79.8	1.13418
80.02	6.22453
80.24	2.32086
80.46	2.5047
80.68	12.9529
80.9	7.04798
81.12	2.22747
81.34	7.23343
81.56	1.44557
81.78	7.28768
82	3.242
82.22	6.29036
82.44	5.43034
82.66	2.48266
82.88	8.53855
83.1	7.20751
83.32	6.58322
83.54	2.446
83.76	4.40429
83.98	4.29349
84.2	8.45903
84.42	4.45216
84.64	3.49115
84.86	6.37553
85.08	3.26773
85.3	0.069898
85.52	2.97665
85.74	1.75094
85.96	4.65993
86.18	22.6374
86.4	3.9761
86.62	11.88
86.84	2.95446
87.06	8.03869
87.28	8.11721
87.5	0.478984
87.72	6.66035
87.94	14.7553
88.16	10.8475
88.38	7.0346
88.6	5.91519
88.82	8.27751
89.04	8.31681
89.26	9.15388
89.48	4.46693
89.7	20.5402
89.92	2.85086
