Measurement: Powder, Xray Data XY Processed
Mineral: Sodalite
Rruff sample: R060436
Ideal chemistry: Na_4_Si_3_Al_3_O_12_Cl
Locality: Koksha Valley, Budakshan Province, Afghanistan
Source: Herb Obodda
Description: Pale blue fragment
Diffraction sample description: Powder
Measured chemistry: (Na_0.99_K_0.01_)_8_Al_6.00_Si_6.00_O_24_Cl_2.00_
Cell parameters: a: 8.88328(6) b: 8.88328(6) c: 8.88328(6) alpha: 90. beta: 90. gamma: 90. volume: 701.00(1) crystal system: cubic
x	intensity
5	0
5.22	9.697
5.44	21.02
5.66	12.558
5.88	10.214
6.1	5.061
6.32	2.195
6.54	0.339
6.76	10.454
6.98	10.204
7.2	4.794
7.42	8.716
7.64	3.861
7.86	13.413
8.08	1.539
8.3	5.907
8.52	6.086
8.74	6.622
8.96	3.112
9.18	6.341
9.4	1.199
9.62	7.118
9.84	3.398
10.06	8.436
10.28	3.755
10.5	0.971
10.72	4.249
10.94	2.781
11.16	5.993
11.38	0.986
11.6	2.025
11.82	9.142
12.04	8.178
12.26	2.279
12.48	7.161
12.7	5.969
12.92	0.127
13.14	4.686
13.36	8.008
13.58	4.993
13.8	5.951
14.02	8.182
14.24	403.02
14.46	22.148
14.68	2.179
14.9	3.413
15.12	0.563
15.34	3.776
15.56	8.126
15.78	4.29
16	3.4
16.22	3.383
16.44	5.423
16.66	5.64
16.88	3.792
17.1	0.129
17.32	6.959
17.54	4.099
17.76	1.12
17.98	4.078
18.2	4.166
18.42	7.273
18.64	5.528
18.86	1.563
19.08	0.515
19.3	1.407
19.52	2.345
19.74	2.339
19.96	7.536
20.18	18.71
20.4	4.716
20.62	4.815
20.84	4.874
21.06	0.242
21.28	2.785
21.5	0.212
21.72	2.869
21.94	4.921
22.16	8.029
22.38	2.11
22.6	2.898
22.82	1.647
23.04	1.209
23.26	2.956
23.48	1.433
23.7	2.202
23.92	0.264
24.14	7.5
24.36	18.158
24.58	218.695
24.8	56.173
25.02	12.024
25.24	8.168
25.46	0.453
25.68	5.674
25.9	2.906
26.12	3.161
26.34	1.474
26.56	0.822
26.78	2.09
27	1.372
27.22	2.582
27.44	5.862
27.66	1.929
27.88	7.77
28.1	5.964
28.32	8.07
28.54	6.164
28.76	3.194
28.98	8.224
29.2	4.313
29.42	6.547
29.64	5.608
29.86	3.576
30.08	7.511
30.3	2.552
30.52	1.605
30.74	2.315
30.96	0.235
31.18	4.166
31.4	5.254
31.62	8.259
31.84	10.199
32.06	47.167
32.28	8.28
32.5	7.381
32.72	5.487
32.94	0.407
33.16	1.575
33.38	0.578
33.6	3.571
33.82	0.617
34.04	4.284
34.26	0.061
34.48	2.354
34.7	9.247
34.92	6.449
35.14	84.327
35.36	15.4
35.58	1.555
35.8	7.492
36.02	5.531
36.24	4.567
36.46	0.332
36.68	4.513
36.9	6.22
37.12	2.035
37.34	5.877
37.56	1.885
37.78	5.761
38	265.838
38.22	10.958
38.44	0.011
38.66	1.025
38.88	1.244
39.1	3.351
39.32	4.522
39.54	5.603
39.76	0.391
39.98	5.805
40.2	2.859
40.42	0.132
40.64	7.698
40.86	8.675
41.08	1.521
41.3	2.365
41.52	3.336
41.74	1.175
41.96	3.091
42.18	3.999
42.4	0.726
42.62	0.584
42.84	1.633
43.06	3.786
43.28	331.79
43.5	31.898
43.72	8.894
43.94	2.905
44.16	8.165
44.38	3.376
44.6	2.476
44.82	2.563
45.04	7.462
45.26	3.558
45.48	6.792
45.7	28.886
45.92	15.829
46.14	1.816
46.36	1.907
46.58	1.113
46.8	3.764
47.02	1.746
47.24	2.738
47.46	4.762
47.68	2.766
47.9	0.392
48.12	51.645
48.34	2.689
48.56	3.763
48.78	1.71
49	0.715
49.22	0.278
49.44	5.753
49.66	0.864
49.88	4.863
50.1	0.72
50.32	6.865
50.54	26.891
50.76	0.894
50.98	8.072
51.2	4.075
51.42	2.103
51.64	2.132
51.86	4.08
52.08	1.154
52.3	5.219
52.52	11.158
52.74	26.148
52.96	4.028
53.18	1.1
53.4	1.802
53.62	3.861
53.84	0.856
54.06	7.989
54.28	6.01
54.5	6.078
54.72	3.028
54.94	1.038
55.16	4.112
55.38	4.246
55.6	5.117
55.82	6.096
56.04	3.026
56.26	4.08
56.48	1.844
56.7	3.127
56.92	6.911
57.14	6.897
57.36	4.816
57.58	5.66
57.8	0.581
58.02	3.325
58.24	2.303
58.46	9.304
58.68	3.307
58.9	109.07
59.12	11.28
59.34	5.472
59.56	3.454
59.78	3.402
60	3.43
60.22	0.498
60.44	4.549
60.66	2.599
60.88	69.54
61.1	11.562
61.32	3.496
61.54	8.345
61.76	2.148
61.98	4.085
62.2	2.104
62.42	4.211
62.64	9.315
62.86	63.371
63.08	11.413
63.3	6.402
63.52	4.304
63.74	3.238
63.96	2.358
64.18	1.413
64.4	4.688
64.62	8.722
64.84	23.736
65.06	10.685
65.28	10.961
65.5	4.903
65.72	0.131
65.94	1.003
66.16	4.057
66.38	8.015
66.6	0.025
66.82	4.939
67.04	5.22
67.26	10.122
67.48	5.908
67.7	1.769
67.92	0.763
68.14	2.24
68.36	5.686
68.58	16.915
68.8	4.93
69.02	0.936
69.24	0.201
69.46	0.489
69.68	7.619
69.9	2.614
70.12	4.604
70.34	44.767
70.56	24.736
70.78	4.628
71	0.532
71.22	0.495
71.44	1.478
71.66	2.631
71.88	2.703
72.1	20.676
72.32	11.801
72.54	8.682
72.76	0.243
72.98	3.83
73.2	1.164
73.42	2.104
73.64	4.161
73.86	6.314
74.08	4.364
74.3	6.33
74.52	6.344
74.74	1.362
74.96	5.32
75.18	1.318
75.4	3.37
75.62	5.426
75.84	3.206
76.06	8.248
76.28	6.205
76.5	4.993
76.72	2.904
76.94	2.781
77.16	4.728
77.38	2.616
77.6	3.554
77.82	6.475
78.04	2.312
78.26	1.204
78.48	1.077
78.7	0.018
78.92	10.038
79.14	6.106
79.36	20.034
79.58	22.255
79.8	2.515
80.02	0.444
80.24	0.435
80.46	5.657
80.68	1.913
80.9	4.977
81.12	4.982
81.34	3.993
81.56	2.961
81.78	1.938
82	0.754
82.22	2.569
82.44	0.36
82.66	2.539
82.88	2.743
83.1	3.647
83.32	4.713
83.54	4.652
83.76	0.366
83.98	1.189
84.2	3.818
84.42	0.027
84.64	0.959
84.86	2.963
85.08	2.96
85.3	3.718
85.52	0.629
85.74	2.6
85.96	0.667
86.18	20.924
86.4	11.95
86.62	7.1
86.84	3.023
87.06	6.104
87.28	0.768
87.5	8.367
87.72	0.559
87.94	4.509
88.16	3.501
88.38	0.737
88.6	5.424
88.82	1.958
89.04	3.945
89.26	2.695
89.48	2.423
89.7	18.004
89.92	3.735
