Measurement: Powder, Xray Data XY Processed
Mineral: Sogdianite
Rruff sample: R050648
Ideal chemistry: KZr^4+^_2_(Li_3_Si_12_)O_30_
Locality: Dara-i-Pioz, Tadjikistan
Source: Dmitri Belakyovski
Description: Purple tabular fragment, used in the Geiger & Grodzicki (2012) study
Diffraction sample description: Powder
Measured chemistry: ([box]_1.13_Na_0.87_)_Σ=2_K_1.00_Li_3.00_(Zr_0.76_Fe^3+^_0.73_Ti_0.37_Al_0.14_)_Σ=2_Si_12.00_O_30_ ; Li not measured but estimated by difference and charge balance.
Cell parameters: a: 10.0439(4) b: 10.0439(4) c: 14.2089(4) alpha: 90. beta: 90. gamma: 120. volume: 1241.3(1) crystal system: hexagonal
x	intensity
5	0
5.22	14.412
5.44	5.26
5.66	9.262
5.88	7.628
6.1	1.008
6.32	2.301
6.54	9.752
6.76	4.708
6.98	7.006
7.2	8.576
7.42	9.045
7.64	3.729
7.86	13.693
8.08	2.698
8.3	11.138
8.52	12.591
8.74	7.982
8.96	6.691
9.18	1.524
9.4	1.845
9.62	8.832
9.84	11.33
10.06	7.039
10.28	9.576
10.5	7.182
10.72	7.253
10.94	4.829
11.16	4.94
11.38	15.741
11.6	7.55
11.82	6.342
12.04	3.51
12.26	0.902
12.48	120.989
12.7	6.081
12.92	7.322
13.14	5.245
13.36	0.62
13.58	1.161
13.8	11.08
14.02	8.612
14.24	2.765
14.46	6.98
14.68	5.111
14.9	10.228
15.12	3.155
15.34	3.784
15.56	3.94
15.78	8.864
16	9.437
16.22	14.372
16.44	13.912
16.66	2.218
16.88	10.593
17.1	1.386
17.32	10.521
17.54	3.745
17.76	9.392
17.98	5.301
18.2	12.397
18.42	13.842
18.64	2.652
18.86	6.675
19.08	12.356
19.3	6.932
19.52	11.447
19.74	8.071
19.96	7.238
20.18	3.682
20.4	112.184
20.62	26.405
20.84	7.991
21.06	10.678
21.28	0.906
21.5	14.541
21.72	478.795
21.94	18.193
22.16	1.005
22.38	6.246
22.6	1.448
22.82	6.506
23.04	10.794
23.26	0.98
23.48	16.947
23.7	9.859
23.92	2.697
24.14	5.646
24.36	6.371
24.58	12.946
24.8	2.394
25.02	16.239
25.24	19.928
25.46	12.067
25.68	2.584
25.9	2.64
26.12	3.295
26.34	12.083
26.56	9.878
26.78	1.308
27	13.436
27.22	46.487
27.44	5.264
27.66	15.996
27.88	291.317
28.1	9.954
28.32	0.153
28.54	8.073
28.76	2.142
28.98	0.832
29.2	1.468
29.42	11.531
29.64	12.516
29.86	3.278
30.08	24.312
30.3	5.727
30.52	1.544
30.74	26.935
30.96	211.41
31.18	16.469
31.4	8.589
31.62	5.4
31.84	7.382
32.06	6.488
32.28	5.552
32.5	25.592
32.72	12.538
32.94	8.725
33.16	22.779
33.38	43.511
33.6	12.77
33.82	1.976
34.04	12.52
34.26	9.822
34.48	0.782
34.7	5.546
34.92	19.96
35.14	2.414
35.36	1.726
35.58	4.626
35.8	64.865
36.02	5.993
36.24	1.143
36.46	2.513
36.68	6.38
36.9	6.14
37.12	13.964
37.34	12.73
37.56	4.231
37.78	14.292
38	17.488
38.22	8.079
38.44	5.061
38.66	6.63
38.88	4.903
39.1	10.002
39.32	0.109
39.54	10.369
39.76	10.423
39.98	0.525
40.2	47.275
40.42	13.092
40.64	10.167
40.86	8.993
41.08	0.278
41.3	7.102
41.52	4.21
41.74	4.263
41.96	7.202
42.18	30.289
42.4	7.34
42.62	7.282
42.84	11.05
43.06	10.363
43.28	10.531
43.5	11.68
43.72	9.89
43.94	7.711
44.16	12.698
44.38	1.48
44.6	11.453
44.82	6.232
45.04	4.397
45.26	9.511
45.48	56.544
45.7	14.479
45.92	7.353
46.14	12.626
46.36	0.113
46.58	2.035
46.8	13.99
47.02	5.856
47.24	3.764
47.46	4.382
47.68	7.718
47.9	28.765
48.12	13.845
48.34	15.637
48.56	21.264
48.78	9.873
49	6.737
49.22	8.088
49.44	7.16
49.66	70.202
49.88	29.425
50.1	14.818
50.32	3.725
50.54	0.44
50.76	2.795
50.98	0.915
51.2	4.632
51.42	31.512
51.64	19.245
51.86	9.414
52.08	13.478
52.3	3.456
52.52	9.421
52.74	9.679
52.96	16.025
53.18	53.782
53.4	21.908
53.62	11.333
53.84	3.29
54.06	6.152
54.28	10.319
54.5	4.639
54.72	10.812
54.94	46.332
55.16	4.374
55.38	1.082
55.6	5.448
55.82	13.502
56.04	14.816
56.26	9.04
56.48	18.214
56.7	16.323
56.92	0.404
57.14	0.18
57.36	7.1
57.58	4.032
57.8	6.993
58.02	6.709
58.24	4.555
58.46	17.258
58.68	14.088
58.9	0.69
59.12	8.348
59.34	8.764
59.56	12.009
59.78	18.129
60	6.26
60.22	3.324
60.44	3.34
60.66	24.551
60.88	15.538
61.1	23.982
61.32	41.688
61.54	3.374
61.76	7.601
61.98	2.962
62.2	2.073
62.42	4.941
62.64	6.107
62.86	4.069
63.08	1.027
63.3	6.803
63.52	9.386
63.74	5.339
63.96	7.391
64.18	36.363
64.4	20.806
64.62	5.712
64.84	4.537
65.06	3.44
65.28	2.127
65.5	17.923
65.72	28.194
65.94	9.205
66.16	13.973
66.38	8.75
66.6	12.578
66.82	11.849
67.04	7.679
67.26	26.696
67.48	27.4
67.7	23.289
67.92	13.573
68.14	4.436
68.36	10.676
68.58	31.247
68.8	18.463
69.02	10.376
69.24	2.333
69.46	6.5
69.68	0.172
69.9	3.22
70.12	15.238
70.34	12.124
70.56	4.976
70.78	11.04
71	13.681
71.22	18.492
71.44	24.482
71.66	14.516
71.88	9.497
72.1	7.915
72.32	8.528
72.54	8.353
72.76	5.615
72.98	10.424
73.2	7.639
73.42	4.844
73.64	5.115
73.86	8.422
74.08	4.608
74.3	18.648
74.52	9.609
74.74	1.726
74.96	5.763
75.18	6.023
75.4	2.036
75.62	11.118
75.84	9.138
76.06	14.078
76.28	1.105
76.5	12.189
76.72	13.669
76.94	7.798
77.16	6.989
77.38	0.024
77.6	4.85
77.82	10.576
78.04	10.516
78.26	8.518
78.48	3.659
78.7	6.329
78.92	6.014
79.14	5.338
79.36	5.517
79.58	12.483
79.8	23.351
80.02	9.233
80.24	8.177
80.46	10.026
80.68	10.866
80.9	7.584
81.12	13.917
81.34	9.338
81.56	0.518
81.78	5.093
82	8.528
82.22	4.164
82.44	14.135
82.66	0.762
82.88	8.307
83.1	11.387
83.32	4.677
83.54	7.454
83.76	5.19
83.98	17.096
84.2	8.949
84.42	5.66
84.64	4.16
84.86	4.935
85.08	14.946
85.3	14.121
85.52	24.25
85.74	2.255
85.96	7.226
86.18	8.323
86.4	15.11
86.62	8.123
86.84	4.096
87.06	7.072
87.28	1.091
87.5	6.416
87.72	7.102
87.94	7.757
88.16	15.412
88.38	15.094
88.6	0.827
88.82	5.114
89.04	4.843
89.26	21.84
89.48	19.037
89.7	12.35
89.92	4.773
