Measurement: Powder, Xray Data XY Processed
Mineral: Spangolite
Rruff sample: R060135
Ideal chemistry: Cu^2+^_6_AlS^6+^O_4_(OH)_12_Cl3H_2_O
Locality: Blanchard mine, Hansonburg District, Socorro County, New Mexico, USA
Source: University of Arizona Mineral Museum
Description: Bluish-green stubby hexagonal pyramids
Diffraction sample description: Powder
Measured chemistry: Cu_6.00_Al_1.00_(S_1.00_O_4_)Cl_1.00_(OH)_12_Â·3H_2_O
Cell parameters: a: 8.2788(4) b: 8.2788(4) c: 14.3606(9) alpha: 90. beta: 90. gamma: 120. volume: 852.39(7) crystal system: hexagonal
x	intensity
5	0
5.22	7.48863
5.44	20.9628
5.66	11.2036
5.88	3.51212
6.1	8.56968
6.32	19.3929
6.54	22.5111
6.76	23.4742
6.98	15.206
7.2	26.7066
7.42	3.26766
7.64	9.96898
7.86	19.2046
8.08	10.8208
8.3	4.54082
8.52	9.96362
8.74	20.9625
8.96	9.78338
9.18	2.30894
9.4	37.6224
9.62	13.0952
9.84	15.7331
10.06	8.2309
10.28	16.1664
10.5	6.50314
10.72	7.43613
10.94	4.83019
11.16	80.662
11.38	18.6364
11.6	35.8479
11.82	49.0166
12.04	79.6811
12.26	1101.74
12.48	240.456
12.7	52.0309
12.92	13.8651
13.14	3.37477
13.36	3.30714
13.58	3.29792
13.8	26.7046
14.02	13.4816
14.24	22.3943
14.46	2.6779
14.68	8.19974
14.9	16.3177
15.12	19.4901
15.34	35.7338
15.56	21.1492
15.78	18.0087
16	21.1922
16.22	2.03934
16.44	33.4273
16.66	12.8069
16.88	21.0865
17.1	9.62462
17.32	16.2662
17.54	75.0487
17.76	26.1374
17.98	38.2114
18.2	12.9176
18.42	29.9814
18.64	9.82555
18.86	21.1131
19.08	25.8428
19.3	27.5499
19.52	3.55014
19.74	6.21098
19.96	22.4522
20.18	24.5343
20.4	16.9437
20.62	16.215
20.84	25.7354
21.06	8.02018
21.28	18.4923
21.5	13.3301
21.72	5.12288
21.94	7.78947
22.16	22.6343
22.38	36.2364
22.6	14.0322
22.82	39.0652
23.04	11.4969
23.26	13.2568
23.48	3.18703
23.7	2.60797
23.92	0.670181
24.14	7.11726
24.36	37.9715
24.58	60.3822
24.8	501.682
25.02	61.5053
25.24	24.8356
25.46	2.75775
25.68	33.9593
25.9	19.4912
26.12	4.9342
26.34	5.2317
26.56	18.4175
26.78	20.5339
27	11.3882
27.22	6.13825
27.44	23.9336
27.66	18.2117
27.88	27.3177
28.1	20.2091
28.32	31.3214
28.54	18.846
28.76	19.3047
28.98	4.03089
29.2	14.1283
29.42	14.87
29.64	5.17603
29.86	5.77486
30.08	10.9719
30.3	21.2971
30.52	1.17287
30.74	15.606
30.96	12.046
31.18	17.4498
31.4	13.4971
31.62	8.61369
31.84	20.4755
32.06	10.6837
32.28	34.2477
32.5	2.47566
32.72	2.99246
32.94	10.6095
33.16	41.0857
33.38	28.2633
33.6	64.4507
33.82	54.5303
34.04	33.118
34.26	6.14198
34.48	12.3633
34.7	8.69504
34.92	14.2396
35.14	2.87482
35.36	88.6022
35.58	86.1092
35.8	12.2534
36.02	1.79497
36.24	15.1562
36.46	10.2734
36.68	28.1561
36.9	18.0746
37.12	33.8773
37.34	9.5711
37.56	7.05554
37.78	32.0463
38	14.4033
38.22	93.2137
38.44	24.3635
38.66	18.8858
38.88	14.2354
39.1	16.4805
39.32	9.58337
39.54	25.205
39.76	29.6792
39.98	3.73415
40.2	13.3691
40.42	8.5637
40.64	18.0388
40.86	25.0666
41.08	19.2202
41.3	11.3849
41.52	17.3663
41.74	59.838
41.96	32.7306
42.18	18.6806
42.4	15.2721
42.62	10.9343
42.84	22.0674
43.06	2.82074
43.28	20.1455
43.5	19.0587
43.72	13.6288
43.94	18.7252
44.16	24.6671
44.38	35.3804
44.6	9.16821
44.82	18.6937
45.04	21.2108
45.26	15.5387
45.48	19.179
45.7	23.5418
45.92	41.3731
46.14	40.8013
46.36	33.7556
46.58	16.6459
46.8	14.6699
47.02	47.7623
47.24	13.3468
47.46	14.3762
47.68	16.6442
47.9	3.00139
48.12	10.1875
48.34	13.8168
48.56	3.80411
48.78	0.448311
49	23.8646
49.22	8.9539
49.44	14.2502
49.66	6.61005
49.88	9.19907
50.1	11.4458
50.32	5.26417
50.54	19.5347
50.76	32.457
50.98	63.0316
51.2	15.1895
51.42	14.0203
51.64	14.12
51.86	1.20487
52.08	12.5084
52.3	22.3311
52.52	28.3212
52.74	16.0657
52.96	5.18984
53.18	12.1865
53.4	18.9546
53.62	5.29161
53.84	8.59852
54.06	4.77115
54.28	28.0356
54.5	27.0037
54.72	11.4373
54.94	28.4593
55.16	21.4601
55.38	3.8227
55.6	10.0808
55.82	10.9871
56.04	36.8313
56.26	33.8068
56.48	23.1731
56.7	17.2716
56.92	12.6902
57.14	6.25654
57.36	5.88851
57.58	16.2553
57.8	13.8282
58.02	0.951824
58.24	24.0328
58.46	26.1906
58.68	30.0363
58.9	14.5123
59.12	37.814
59.34	27.1462
59.56	28.7812
59.78	6.72005
60	12.9164
60.22	16.1823
60.44	28.9504
60.66	11.122
60.88	22.0358
61.1	9.94687
61.32	11.2299
61.54	17.4395
61.76	6.49776
61.98	18.6626
62.2	30.2601
62.42	7.38159
62.64	15.3894
62.86	20.1412
63.08	8.28131
63.3	14.0024
63.52	5.54993
63.74	19.1582
63.96	11.6163
64.18	7.46762
64.4	5.46383
64.62	21.552
64.84	17.9233
65.06	26.5544
65.28	14.6419
65.5	4.99587
65.72	5.14109
65.94	13.2236
66.16	8.43323
66.38	4.73617
66.6	2.22315
66.82	0.525612
67.04	13.2368
67.26	12.9673
67.48	7.2097
67.7	13.6482
67.92	21.5309
68.14	18.3234
68.36	23.3528
68.58	5.11649
68.8	9.25998
69.02	4.90551
69.24	17.6106
69.46	27.8651
69.68	33.1698
69.9	12.2553
70.12	27.7739
70.34	0.757595
70.56	18.3533
70.78	20.2965
71	30.392
71.22	12.0634
71.44	9.79039
71.66	6.51092
71.88	19.2772
72.1	2.21538
72.32	12.415
72.54	13.6939
72.76	2.2145
72.98	18.2392
73.2	11.4518
73.42	22.3692
73.64	11.6811
73.86	14.6971
74.08	6.32674
74.3	2.63318
74.52	11.0519
74.74	18.2654
74.96	30.438
75.18	30.7775
75.4	7.41047
75.62	6.59041
75.84	18.0396
76.06	17.3041
76.28	11.7558
76.5	20.2949
76.72	6.91459
76.94	9.74796
77.16	3.54759
77.38	9.45671
77.6	24.9975
77.82	28.3018
78.04	4.62999
78.26	12.8754
78.48	24.792
78.7	6.35973
78.92	15.0976
79.14	7.53589
79.36	4.71517
79.58	13.8937
79.8	6.78109
80.02	16.7464
80.24	9.00127
80.46	14.8262
80.68	13.5094
80.9	23.9035
81.12	14.0008
81.34	14.6029
81.56	21.9413
81.78	19.01
82	29.0241
82.22	20.3087
82.44	4.43747
82.66	4.97483
82.88	8.24784
83.1	3.47475
83.32	13.9498
83.54	4.8525
83.76	16.3103
83.98	9.29427
84.2	16.5599
84.42	7.71724
84.64	6.53672
84.86	17.2351
85.08	3.93504
85.3	0.608559
85.52	3.63677
85.74	2.18515
85.96	13.3302
86.18	0.152287
86.4	20.5529
86.62	4.22143
86.84	2.97369
87.06	5.07468
87.28	15.362
87.5	2.00405
87.72	13.033
87.94	13.1753
88.16	10.125
88.38	14.7704
88.6	7.80244
88.82	18.9628
89.04	16.1355
89.26	9.18225
89.48	1.82602
89.7	18.5573
89.92	14.9897
