Measurement: Powder, Xray Data XY Processed
Mineral: Spessartine
Rruff sample: R060279
Ideal chemistry: Mn^2+^_3_Al_2_(SiO_4_)_3_
Locality: Shigar Valley, northeast of Skardu, Baltistan, Pakistan
Source: Herb Obodda
Description: Reddish-brown fine grained fragment
Diffraction sample description: Powder
Measured chemistry: (Mn^2+^_1.64_Ca_0.82_Fe^2+^_0.46_Mg_0.08_)_Σ=3_(Al_1.98_Fe^3+^_0.02_)_Σ=2_(Si_1.00_O_4_)_3_
Cell parameters: a: 11.6798(3) b: 11.6798(3) c: 11.6798(3) alpha: 90 beta: 90 gamma: 90 volume: 1593.3(1) crystal system: cubic
x	intensity
5	0
5.22	14.491
5.44	9.019
5.66	7.081
5.88	18.262
6.1	2.073
6.32	11.83
6.54	4.947
6.76	5.068
6.98	13.589
7.2	8.705
7.42	4.594
7.64	18.984
7.86	16.885
8.08	16.284
8.3	13.846
8.52	2.337
8.74	14.713
8.96	5.296
9.18	0.818
9.4	14.453
9.62	11.15
9.84	5.94
10.06	1.264
10.28	10.405
10.5	9.701
10.72	10.791
10.94	1.033
11.16	2.901
11.38	1.237
11.6	12.607
11.82	11.568
12.04	9.157
12.26	9.267
12.48	4.4
12.7	2.345
12.92	7.812
13.14	15.98
13.36	0.823
13.58	3.089
13.8	0.382
14.02	8.533
14.24	6.908
14.46	8.276
14.68	14.437
14.9	1.218
15.12	14.506
15.34	7.131
15.56	14.35
15.78	15.714
16	3.968
16.22	15.128
16.44	9.14
16.66	8.889
16.88	12.655
17.1	10.39
17.32	10.59
17.54	3.272
17.76	4.207
17.98	10.777
18.2	2.528
18.42	18.444
18.64	7.248
18.86	18.491
19.08	5.41
19.3	6.435
19.52	19.482
19.74	9.334
19.96	12.358
20.18	7.851
20.4	8.778
20.62	11.039
20.84	7.256
21.06	2.167
21.28	5.999
21.5	15.237
21.72	0.329
21.94	9.465
22.16	14.585
22.38	6.825
22.6	5.864
22.82	0.041
23.04	8.303
23.26	14.915
23.48	1.109
23.7	4.679
23.92	7.825
24.14	14.879
24.36	8.837
24.58	8.77
24.8	16.46
25.02	9.396
25.24	4.31
25.46	13.563
25.68	8.44
25.9	1.325
26.12	2.109
26.34	5.848
26.56	6.699
26.78	17.406
27	0.585
27.22	10.667
27.44	2.476
27.66	1.652
27.88	3.295
28.1	14.925
28.32	15.941
28.54	0.009
28.76	7.52
28.98	0.632
29.2	4.186
29.42	5.765
29.64	8.488
29.86	6.355
30.08	8.801
30.3	4.763
30.52	5.463
30.74	96.497
30.96	10.069
31.18	1.714
31.4	8.441
31.62	14.862
31.84	3.616
32.06	9.963
32.28	2.926
32.5	2.41
32.72	3.002
32.94	7.683
33.16	7.24
33.38	17.432
33.6	1.94
33.82	0.617
34.04	14.823
34.26	40.267
34.48	169.387
34.7	22.294
34.92	4.32
35.14	5.457
35.36	18.979
35.58	15.606
35.8	15.169
36.02	16.064
36.24	11.187
36.46	6.385
36.68	14.509
36.9	1.69
37.12	9.736
37.34	10.52
37.56	8.707
37.78	40.25
38	17.81
38.22	4.468
38.44	0.713
38.66	20.504
38.88	5.905
39.1	15.323
39.32	11.129
39.54	21.309
39.76	12.179
39.98	13.146
40.2	0.474
40.42	2.863
40.64	8.03
40.86	13.44
41.08	14.456
41.3	13.28
41.52	13.89
41.74	11.668
41.96	12.502
42.18	13.809
42.4	14.359
42.62	13.128
42.84	12.662
43.06	11.811
43.28	7.395
43.5	11.078
43.72	12.135
43.94	14.159
44.16	0.505
44.38	3.294
44.6	8.592
44.82	6.91
45.04	16.674
45.26	1.061
45.48	2.85
45.7	0.713
45.92	9.281
46.14	9.229
46.36	7.949
46.58	6.621
46.8	6.104
47.02	8.677
47.24	3.173
47.46	7.723
47.68	7.896
47.9	15.774
48.12	21.6
48.34	25.62
48.56	10.912
48.78	3.206
49	6.287
49.22	9.474
49.44	10.016
49.66	3.784
49.88	22.915
50.1	9.648
50.32	8.564
50.54	7.611
50.76	5.57
50.98	22.261
51.2	10.978
51.42	3.69
51.64	4.019
51.86	15.779
52.08	13.459
52.3	11.87
52.52	2.84
52.74	12.262
52.96	15.125
53.18	13.141
53.4	12.158
53.62	10.003
53.84	6.906
54.06	8.249
54.28	5.103
54.5	17.845
54.72	14.407
54.94	11.346
55.16	0.519
55.38	2.275
55.6	13.12
55.82	1.854
56.04	4.599
56.26	4.192
56.48	13.521
56.7	27.438
56.92	49.855
57.14	12.767
57.36	15.931
57.58	9.42
57.8	8.615
58.02	5.632
58.24	10.749
58.46	2.908
58.68	1.867
58.9	2.013
59.12	21.588
59.34	60.225
59.56	28.288
59.78	8.74
60	6.692
60.22	2.307
60.44	5.764
60.66	8.878
60.88	8.846
61.1	12.852
61.32	10.364
61.54	2.701
61.76	7.574
61.98	10.969
62.2	15.99
62.42	8.114
62.64	4.976
62.86	7.963
63.08	8.095
63.3	12.196
63.52	9.241
63.74	23.062
63.96	21.976
64.18	2.693
64.4	6.644
64.62	9.565
64.84	21.678
65.06	6.947
65.28	15.024
65.5	0.058
65.72	3.228
65.94	3.484
66.16	13.153
66.38	10.979
66.6	10.467
66.82	2.945
67.04	8.085
67.26	9.269
67.48	14.113
67.7	8.272
67.92	16.276
68.14	11.534
68.36	10.265
68.58	12.212
68.8	12.563
69.02	10.848
69.24	7.244
69.46	19.241
69.68	11.007
69.9	3.615
70.12	10.355
70.34	11.438
70.56	12.041
70.78	14.961
71	11.802
71.22	21.09
71.44	12.831
71.66	7.385
71.88	14.685
72.1	8.384
72.32	19.226
72.54	12.298
72.76	9.907
72.98	12.992
73.2	9.918
73.42	2.917
73.64	10.963
73.86	10.876
74.08	3.148
74.3	19.503
74.52	21.412
74.74	19.739
74.96	9.083
75.18	6.904
75.4	15.592
75.62	11.487
75.84	5.543
76.06	15.393
76.28	17.677
76.5	15.57
76.72	19.437
76.94	16.114
77.16	12.731
77.38	11.995
77.6	5.054
77.82	17.472
78.04	1.407
78.26	5.887
78.48	5.092
78.7	9.918
78.92	9.94
79.14	20.61
79.36	11.606
79.58	11.3
79.8	0.872
80.02	11.841
80.24	4.502
80.46	16.387
80.68	8.178
80.9	14.052
81.12	11.575
81.34	8.743
81.56	10.01
81.78	0.88
82	9.618
82.22	1.986
82.44	10.82
82.66	14.61
82.88	14.48
83.1	1.182
83.32	3.803
83.54	4.637
83.76	14.304
83.98	7.275
84.2	3.327
84.42	10.565
84.64	4.857
84.86	4.949
85.08	9.287
85.3	13.414
85.52	11.599
85.74	10.353
85.96	11.752
86.18	2.895
86.4	7.277
86.62	9.999
86.84	11.871
87.06	8.546
87.28	17.618
87.5	18.894
87.72	7.903
87.94	9.996
88.16	9.379
88.38	5.281
88.6	14.119
88.82	13.422
89.04	18.629
89.26	25.721
89.48	0.985
89.7	6.52
89.92	2.951
