Measurement: Powder, Xray Data XY Processed
Mineral: Spinel
Rruff sample: R070013
Ideal chemistry: MgAl_2_O_4_
Locality: Bo Phloi, Kanchoutabori Province, Thailand
Source: Michael Scott
Description: Black glassy fragment with conchoidal fracture
Diffraction sample description: Powder
Measured chemistry: (Mg_0.69_Fe^2+^_0.31_)_Σ=1_(Al_1.90_Fe^3+^_0.10_)_Σ=2_O_4_ ; trace of Mn, Ti and Cr
Cell parameters: a: 8.1297(1) b: 8.1297(1) c: 8.1297(1) alpha: 90 beta: 90 gamma: 90 volume: 537.31(2) crystal system: cubic
x	intensity
5	0
5.22	21.3127
5.44	1.17883
5.66	3.38057
5.88	38.6751
6.1	9.69684
6.32	12.2094
6.54	33.5809
6.76	25.5894
6.98	38.0038
7.2	23.2771
7.42	8.70288
7.64	36.9293
7.86	15.0956
8.08	7.2908
8.3	15.9336
8.52	13.6966
8.74	0.174309
8.96	18.8414
9.18	17.9592
9.4	26.8304
9.62	23.6713
9.84	19.125
10.06	1.17912
10.28	14.8679
10.5	12.6204
10.72	30.6449
10.94	14.4925
11.16	8.52867
11.38	24.6404
11.6	5.7887
11.82	11.3442
12.04	18.8441
12.26	25.1674
12.48	21.3343
12.7	18.9254
12.92	1.64925
13.14	20.4773
13.36	33.9044
13.58	27.0333
13.8	5.81715
14.02	17.1155
14.24	11.8909
14.46	11.1777
14.68	18.418
14.9	11.7213
15.12	19.7109
15.34	17.8835
15.56	18.7418
15.78	0.976677
16	19.9558
16.22	10.7458
16.44	35.2249
16.66	2.64668
16.88	21.7747
17.1	24.7509
17.32	4.02105
17.54	8.42213
17.76	0.244011
17.98	14.2959
18.2	21.6638
18.42	19.7131
18.64	19.1718
18.86	64.6311
19.08	7.66486
19.3	21.1615
19.52	40.1573
19.74	15.4279
19.96	26.762
20.18	30.3364
20.4	2.78932
20.62	30.9419
20.84	18.459
21.06	38.4655
21.28	21.3906
21.5	13.0645
21.72	18.0604
21.94	33.0197
22.16	5.53799
22.38	13.6693
22.6	38.9321
22.82	2.08054
23.04	13.2609
23.26	19.8185
23.48	26.495
23.7	11.2516
23.92	19.9065
24.14	1.92956
24.36	32.9181
24.58	7.91235
24.8	2.9295
25.02	21.3609
25.24	2.70369
25.46	39.2845
25.68	24.0318
25.9	23.9631
26.12	27.3951
26.34	2.0372
26.56	11.8733
26.78	20.6761
27	8.07539
27.22	10.1328
27.44	0.04895
27.66	19.297
27.88	10.5084
28.1	16.4625
28.32	35.3565
28.54	19.1957
28.76	23.0933
28.98	1.28107
29.2	38.1064
29.42	29.6157
29.64	20.5847
29.86	16.9427
30.08	27.4284
30.3	2.0453
30.52	30.6707
30.74	21.1257
30.96	51.7142
31.18	308.909
31.4	8.62677
31.62	20.9136
31.84	15.9811
32.06	3.19408
32.28	3.31413
32.5	20.0724
32.72	5.37539
32.94	17.8846
33.16	26.4369
33.38	8.04411
33.6	18.2161
33.82	17.7317
34.04	1.54977
34.26	26.5025
34.48	15.0421
34.7	25.594
34.92	19.1132
35.14	53.3868
35.36	6.65963
35.58	7.08058
35.8	16.0112
36.02	0.377357
36.24	19.1913
36.46	72.6805
36.68	717.068
36.9	48.1252
37.12	0.300385
37.34	12.6584
37.56	25.1106
37.78	32.5899
38	10.6609
38.22	11.3761
38.44	26.968
38.66	2.39694
38.88	17.2282
39.1	3.8494
39.32	19.5007
39.54	3.81743
39.76	8.76256
39.98	18.3111
40.2	31.3079
40.42	18.0541
40.64	9.13663
40.86	20.2112
41.08	0.800194
41.3	7.49088
41.52	16.3939
41.74	11.6044
41.96	2.93592
42.18	7.09035
42.4	23.6919
42.62	7.46678
42.84	6.67829
43.06	15.9838
43.28	27.2968
43.5	0.734489
43.72	0.298203
43.94	25.4961
44.16	26.9678
44.38	20.3155
44.6	240.248
44.82	42.1919
45.04	24.4963
45.26	14.436
45.48	12.4606
45.7	22.1486
45.92	33.8914
46.14	6.00217
46.36	44.1151
46.58	17.9496
46.8	19.7117
47.02	9.25531
47.24	1.9379
47.46	22.2629
47.68	12.8388
47.9	16.6219
48.12	27.1499
48.34	5.45199
48.56	18.3838
48.78	23.9709
49	17.3741
49.22	15.3589
49.44	13.605
49.66	5.39947
49.88	9.21607
50.1	12.8463
50.32	28.3949
50.54	11.3299
50.76	11.6026
50.98	5.2259
51.2	8.56249
51.42	16.9748
51.64	10.2503
51.86	15.0346
52.08	8.0071
52.3	3.43122
52.52	18.2649
52.74	27.3983
52.96	35.9828
53.18	23.9481
53.4	22.6124
53.62	3.95207
53.84	11.902
54.06	33.6621
54.28	13.2956
54.5	21.4486
54.72	11.8921
54.94	3.77834
55.16	34.0904
55.38	46.3622
55.6	9.43903
55.82	12.4977
56.04	18.9466
56.26	24.9113
56.48	9.55217
56.7	11.4739
56.92	1.58802
57.14	14.1937
57.36	21.8246
57.58	41.0919
57.8	37.4356
58.02	17.8585
58.24	12.2059
58.46	18.8471
58.68	18.8451
58.9	36.3594
59.12	124.479
59.34	16.0824
59.56	7.09956
59.78	16.1759
60	15.4058
60.22	17.5462
60.44	18.2384
60.66	8.49176
60.88	15.0385
61.1	24.9778
61.32	21.1051
61.54	15.1669
61.76	31.3409
61.98	16.6917
62.2	23.4418
62.42	6.97765
62.64	15.7646
62.86	10.885
63.08	16.7276
63.3	21.3847
63.52	11.6824
63.74	7.52953
63.96	14.0603
64.18	8.95169
64.4	33.783
64.62	32.1994
64.84	510.337
65.06	142.795
65.28	8.83058
65.5	14.2253
65.72	14.5113
65.94	11.3126
66.16	19.0625
66.38	23.4856
66.6	8.79783
66.82	22.2339
67.04	9.86398
67.26	3.04841
67.48	14.9385
67.7	17.3515
67.92	23.8183
68.14	11.8487
68.36	34.826
68.58	9.03392
68.8	5.92924
69.02	31.1635
69.24	17.2418
69.46	0.427414
69.68	27.0708
69.9	36.2085
70.12	17.8023
70.34	23.9663
70.56	14.535
70.78	16.6511
71	12.6175
71.22	22.2854
71.44	12.0631
71.66	11.6031
71.88	12.4633
72.1	35.0189
72.32	13.3545
72.54	0.874786
72.76	9.5789
72.98	9.71171
73.2	16.9614
73.42	20.7078
73.64	28.9665
73.86	24.7894
74.08	8.74246
74.3	5.87925
74.52	23.4639
74.74	18.1481
74.96	29.0727
75.18	21.1059
75.4	18.0938
75.62	0.066742
75.84	20.2417
76.06	6.90186
76.28	6.45964
76.5	20.2684
76.72	40.0013
76.94	42.3082
77.16	18.4872
77.38	1.25532
77.6	16.8495
77.82	14.5966
78.04	0.207932
78.26	4.25649
78.48	1.80514
78.7	0.828529
78.92	16.8708
79.14	14.8619
79.36	15.0993
79.58	6.93716
79.8	19.3573
80.02	22.3272
80.24	30.3768
80.46	15.6183
80.68	3.8606
80.9	4.6958
81.12	8.54076
81.34	15.1189
81.56	27.6992
81.78	17.7037
82	20.7309
82.22	11.6899
82.44	1.28552
82.66	16.5424
82.88	5.69682
83.1	9.63562
83.32	10.9947
83.54	15.585
83.76	11.3889
83.98	21.3352
84.2	26.4601
84.42	2.44815
84.64	11.5879
84.86	18.6253
85.08	29.2605
85.3	39.0418
85.52	14.1607
85.74	6.36468
85.96	6.77421
86.18	25.785
86.4	14.1604
86.62	1.07962
86.84	28.4456
87.06	26.845
87.28	26.5538
87.5	19.8156
87.72	15.2746
87.94	17.7242
88.16	11.0009
88.38	14.9062
88.6	20.8296
88.82	39.1915
89.04	16.8779
89.26	29.5511
89.48	4.86707
89.7	12.33
89.92	4.33912
