Measurement: Powder, Xray Data XY Processed
Mineral: Spodumene
Rruff sample: R040050
Ideal chemistry: LiAlSi_2_O_6_
Locality: Minas Gerais, Brazil
Source: University of Arizona Mineral Museum
Description: Pale pink fragment of a single crystal, variety kunzite
Diffraction sample description: Powder
Measured chemistry: (Li_0.99_Na_0.01_)Al_1.00_Si_2.00_O_6_
Cell parameters: a: 9.4638(3) b: 8.3909(2) c: 5.2178(2) alpha: 90. beta: 110.168(3) gamma: 90. volume: 388.94(2) crystal system: monoclinic
x	intensity
5	0
5.22	2.727
5.44	8.943
5.66	8.98
5.88	15.292
6.1	7.75
6.32	5.679
6.54	2.929
6.76	14.711
6.98	3.732
7.2	13.103
7.42	5.995
7.64	4.422
7.86	2.463
8.08	7.349
8.3	9.266
8.52	3.966
8.74	4.579
8.96	4.16
9.18	10.282
9.4	6.713
9.62	5.655
9.84	13.956
10.06	12.733
10.28	3.695
10.5	0.968
10.72	7.904
10.94	4.982
11.16	4.598
11.38	0.459
11.6	4.488
11.82	7.213
12.04	2.815
12.26	12.162
12.48	7.947
12.7	3.877
12.92	7.525
13.14	21.371
13.36	4.149
13.58	3.426
13.8	9.454
14.02	4.515
14.24	4.476
14.46	127.948
14.68	23.717
14.9	6.826
15.12	14.171
15.34	3.511
15.56	9.917
15.78	12.156
16	9.609
16.22	5.99
16.44	4.251
16.66	7.749
16.88	6.45
17.1	1.675
17.32	3.748
17.54	5.65
17.76	1.556
17.98	8.193
18.2	2.795
18.42	7.04
18.64	0.397
18.86	0.639
19.08	10.092
19.3	2.121
19.52	3.688
19.74	7.599
19.96	113.263
20.18	16.383
20.4	215.684
20.62	21.772
20.84	16.401
21.06	83.705
21.28	250.54
21.5	10.497
21.72	7.662
21.94	10.731
22.16	4.021
22.38	3.099
22.6	2.135
22.82	5.884
23.04	6.812
23.26	6.016
23.48	11.217
23.7	3.113
23.92	4.993
24.14	4.592
24.36	2.94
24.58	4.274
24.8	3.185
25.02	8.341
25.24	8.062
25.46	11.493
25.68	11.449
25.9	312.571
26.12	18.912
26.34	6.761
26.56	2.824
26.78	3.08
27	1.956
27.22	0.899
27.44	1.318
27.66	15.416
27.88	31.458
28.1	107.711
28.32	16.726
28.54	4.039
28.76	4.707
28.98	5.096
29.2	11.114
29.42	18.151
29.64	4.825
29.86	7.524
30.08	0.144
30.3	23.829
30.52	105.484
30.74	511.613
30.96	38.138
31.18	13.46
31.4	37.59
31.62	11.987
31.84	12.374
32.06	1076.18
32.28	36.284
32.5	8.524
32.72	3.827
32.94	2.773
33.16	6.947
33.38	8.087
33.6	249.373
33.82	13.376
34.04	9.081
34.26	5.825
34.48	3.241
34.7	5.229
34.92	7.444
35.14	10.528
35.36	16.42
35.58	1.232
35.8	3.106
36.02	1.362
36.24	3.398
36.46	17.516
36.68	675.489
36.9	18.641
37.12	0.085
37.34	0.216
37.56	9.586
37.78	10.987
38	5.418
38.22	66.178
38.44	21.82
38.66	12.333
38.88	1.827
39.1	6.134
39.32	3.164
39.54	12.27
39.76	0.681
39.98	5.445
40.2	7.214
40.42	2.845
40.64	49.236
40.86	4.06
41.08	2.226
41.3	2.48
41.52	6.017
41.74	0.497
41.96	5.005
42.18	13.596
42.4	10.175
42.62	4.782
42.84	20.554
43.06	32.159
43.28	4.899
43.5	0.031
43.72	7.14
43.94	71.749
44.16	26.666
44.38	11.476
44.6	40.82
44.82	7.192
45.04	9.048
45.26	3.09
45.48	3.607
45.7	7.821
45.92	0.036
46.14	4.01
46.36	1.587
46.58	2.19
46.8	3.691
47.02	27.294
47.24	91.985
47.46	8.261
47.68	3.212
47.9	1.388
48.12	8.284
48.34	13.009
48.56	12.056
48.78	41.014
49	74.779
49.22	22.941
49.44	16.587
49.66	2.948
49.88	19.807
50.1	2.313
50.32	1.869
50.54	3.765
50.76	5.373
50.98	15.71
51.2	11.106
51.42	6.38
51.64	3.363
51.86	10.067
52.08	9.802
52.3	10.924
52.52	11.118
52.74	39.241
52.96	8.022
53.18	14.875
53.4	13.724
53.62	3.834
53.84	3.27
54.06	3.285
54.28	5.285
54.5	21.289
54.72	0.98
54.94	1.569
55.16	7.632
55.38	5.095
55.6	10.166
55.82	23.856
56.04	9.341
56.26	5.607
56.48	0.177
56.7	4.691
56.92	16.197
57.14	12.166
57.36	42.175
57.58	42.486
57.8	19.481
58.02	30.032
58.24	7.973
58.46	4.968
58.68	28.23
58.9	125.804
59.12	27.097
59.34	5.405
59.56	1.283
59.78	2.752
60	0.358
60.22	0.38
60.44	20.239
60.66	88.399
60.88	89.55
61.1	13.605
61.32	2.078
61.54	1.986
61.76	1.825
61.98	3.162
62.2	13.901
62.42	18.626
62.64	11.969
62.86	13.186
63.08	9.113
63.3	7.96
63.52	12.294
63.74	99.564
63.96	28.04
64.18	15.491
64.4	9.433
64.62	3.733
64.84	4.003
65.06	11.602
65.28	8.93
65.5	10.116
65.72	6.281
65.94	10.955
66.16	1.992
66.38	12.179
66.6	6.26
66.82	40.473
67.04	47.61
67.26	8.508
67.48	13.553
67.7	5.489
67.92	5.443
68.14	9.294
68.36	14.427
68.58	11.951
68.8	3.047
69.02	22.248
69.24	18.216
69.46	0.596
69.68	3.441
69.9	47.633
70.12	41.843
70.34	15.24
70.56	16.984
70.78	99.169
71	64.291
71.22	6.811
71.44	6.552
71.66	12.192
71.88	37.359
72.1	18.647
72.32	3.734
72.54	11.625
72.76	7.268
72.98	5.16
73.2	4.865
73.42	8.425
73.64	16.847
73.86	10.043
74.08	1.675
74.3	7.306
74.52	7.189
74.74	2.083
74.96	0.261
75.18	6.385
75.4	14.312
75.62	0.204
75.84	9.025
76.06	8.589
76.28	5.982
76.5	11.014
76.72	16.478
76.94	8.911
77.16	4.419
77.38	12.81
77.6	7.275
77.82	12.972
78.04	9.799
78.26	13.225
78.48	11.131
78.7	25.666
78.92	22.313
79.14	18.973
79.36	0.077
79.58	5.575
79.8	1.959
80.02	2.271
80.24	2.585
80.46	1.73
80.68	3.744
80.9	23.083
81.12	8.768
81.34	2.324
81.56	11.036
81.78	2.495
82	2.379
82.22	3.425
82.44	38.461
82.66	42.914
82.88	6.98
83.1	2.253
83.32	6.428
83.54	9.203
83.76	7.587
83.98	7.915
84.2	8.6
84.42	5.839
84.64	4.266
84.86	7.432
85.08	11.132
85.3	6.47
85.52	5.349
85.74	0.037
85.96	9.779
86.18	10.726
86.4	8.834
86.62	7.628
86.84	2.481
87.06	2.712
87.28	6.821
87.5	7.961
87.72	2.802
87.94	2.981
88.16	4.206
88.38	6.756
88.6	8.059
88.82	2.849
89.04	12.083
89.26	2.188
89.48	1.553
89.7	6.672
89.92	5.502
