Measurement: Powder, Xray Data XY Processed
Mineral: Starkeyite
Rruff sample: R070589
Ideal chemistry: MgS^6+^O_4_4H_2_O
Locality: Basque Lake, near Ashcroft, British Columbia, Canada
Source: James Shigley
Description: Fine white powder
Diffraction sample description: Powder
Cell parameters: a: 5.9191(2) b: 13.5993(5) c: 7.9095(5) alpha: 90 beta: 90.895(4) gamma: 90 volume: 636.61(4) crystal system: monoclinic
x	intensity
5	0
5.22	8.67892
5.44	5.50942
5.66	9.98998
5.88	5.41051
6.1	16.8494
6.32	7.82799
6.54	16.5751
6.76	6.44116
6.98	8.53477
7.2	9.01956
7.42	18.0821
7.64	11.17
7.86	0.153236
8.08	2.26668
8.3	9.19073
8.52	1.88806
8.74	5.38291
8.96	0.71644
9.18	4.71245
9.4	2.57415
9.62	4.31411
9.84	18.3602
10.06	5.48596
10.28	8.31958
10.5	4.17441
10.72	15.7095
10.94	0.745321
11.16	7.60386
11.38	18.7258
11.6	16.0634
11.82	8.49578
12.04	6.37347
12.26	4.02337
12.48	4.61317
12.7	17.1195
12.92	232.212
13.14	17.0342
13.36	6.80786
13.58	7.97391
13.8	17.8752
14.02	11.3837
14.24	7.32567
14.46	7.72309
14.68	8.00789
14.9	9.19762
15.12	4.08826
15.34	0.030928
15.56	13.1417
15.78	10.8929
16	22.5996
16.22	100.118
16.44	72.5903
16.66	2.7905
16.88	2.8574
17.1	20.875
17.32	11.1991
17.54	11.342
17.76	0.623457
17.98	20.1793
18.2	8.54957
18.42	2.57998
18.64	31.2548
18.86	290.296
19.08	14.9986
19.3	2.05376
19.52	11.8301
19.74	99.9284
19.96	519.852
20.18	12.7444
20.4	0.014368
20.62	10.4779
20.84	10.2779
21.06	1.94993
21.28	9.25329
21.5	7.54158
21.72	8.55546
21.94	10.4363
22.16	2.67226
22.38	97.1457
22.6	116.771
22.82	9.35639
23.04	25.7147
23.26	6.67854
23.48	29.0677
23.7	6.30183
23.92	4.57136
24.14	0.687718
24.36	0.321367
24.58	13.2017
24.8	57.3745
25.02	4.4448
25.24	1.11126
25.46	8.2648
25.68	2.08095
25.9	4.87681
26.12	141.637
26.34	40.0316
26.56	4.18159
26.78	8.47828
27	8.80271
27.22	25.0708
27.44	20.391
27.66	167.727
27.88	11.9457
28.1	38.0703
28.32	7.24376
28.54	2.42612
28.76	1.79135
28.98	4.79007
29.2	13.4624
29.42	5.15111
29.64	9.31519
29.86	28.7996
30.08	96.2234
30.3	376.74
30.52	23.5198
30.74	7.91725
30.96	39.0534
31.18	12.1828
31.4	0.699024
31.62	7.34
31.84	1.66228
32.06	11.2002
32.28	142.1
32.5	90.5432
32.72	47.2069
32.94	33.0289
33.16	29.4931
33.38	15.1763
33.6	0.541502
33.82	46.8467
34.04	2.71875
34.26	4.24581
34.48	0.717657
34.7	38.3242
34.92	34.7389
35.14	138.838
35.36	7.67083
35.58	10.4577
35.8	4.92751
36.02	6.24181
36.24	55.3081
36.46	37.4925
36.68	36.6468
36.9	5.28126
37.12	136.874
37.34	2.81753
37.56	33.872
37.78	21.6209
38	42.6021
38.22	103.575
38.44	8.89917
38.66	0.470303
38.88	55.0104
39.1	4.18898
39.32	10.2067
39.54	73.6078
39.76	137.211
39.98	25.2867
40.2	5.94672
40.42	22.1079
40.64	44.1727
40.86	9.92587
41.08	0.634336
41.3	5.55635
41.52	22.6648
41.74	14.001
41.96	5.26734
42.18	13.0591
42.4	4.45366
42.62	3.307
42.84	19.5852
43.06	5.71095
43.28	15.808
43.5	2.37382
43.72	1.48763
43.94	7.41123
44.16	5.79993
44.38	12.3214
44.6	7.71716
44.82	6.60257
45.04	5.19422
45.26	5.0887
45.48	9.77007
45.7	2.75471
45.92	19.288
46.14	56.446
46.36	24.6885
46.58	8.0459
46.8	16.7492
47.02	26.3929
47.24	4.24763
47.46	5.76065
47.68	24.1314
47.9	8.93947
48.12	24.4722
48.34	14.7956
48.56	39.4288
48.78	32.7562
49	11.6013
49.22	10.8959
49.44	0.874112
49.66	9.29521
49.88	7.35784
50.1	1.59833
50.32	17.9704
50.54	21.6421
50.76	56.3403
50.98	28.6292
51.2	1.23956
51.42	7.56665
51.64	22.4126
51.86	5.43059
52.08	11.2996
52.3	13.3076
52.52	15.1938
52.74	5.94595
52.96	2.21062
53.18	17.9241
53.4	34.6786
53.62	3.69821
53.84	10.8964
54.06	9.80028
54.28	0.246792
54.5	6.78166
54.72	8.73292
54.94	6.49036
55.16	28.388
55.38	23.2861
55.6	12.5401
55.82	8.90966
56.04	10.8694
56.26	49.1483
56.48	19.4484
56.7	0.661664
56.92	4.95379
57.14	3.13596
57.36	6.26016
57.58	9.3027
57.8	14.299
58.02	16.2505
58.24	12.3867
58.46	1.58639
58.68	12.4155
58.9	11.2067
59.12	12.9862
59.34	22.7447
59.56	15.1091
59.78	4.66116
60	7.67207
60.22	16.7074
60.44	12.7694
60.66	3.95954
60.88	4.23306
61.1	13.3252
61.32	30.3531
61.54	30.4456
61.76	5.5217
61.98	0.068809
62.2	12.7353
62.42	16.4786
62.64	5.53169
62.86	9.71861
63.08	1.73064
63.3	2.60389
63.52	1.68284
63.74	4.91796
63.96	6.98975
64.18	33.7789
64.4	28.9752
64.62	5.22868
64.84	8.37045
65.06	4.64716
65.28	3.22384
65.5	12.6853
65.72	1.76297
65.94	2.19323
66.16	5.71421
66.38	1.20145
66.6	0.821252
66.82	7.51544
67.04	4.13063
67.26	11.4187
67.48	8.11179
67.7	9.89202
67.92	16.5104
68.14	27.0619
68.36	16.3837
68.58	8.84335
68.8	8.19527
69.02	7.57046
69.24	4.07465
69.46	3.15423
69.68	3.51348
69.9	7.76771
70.12	4.16629
70.34	12.7269
70.56	6.48925
70.78	8.3412
71	7.1043
71.22	4.20442
71.44	4.8991
71.66	7.88371
71.88	9.20079
72.1	13.5679
72.32	6.20705
72.54	6.51317
72.76	3.86495
72.98	2.43684
73.2	2.44024
73.42	13.3744
73.64	32.1151
73.86	29.1973
74.08	5.57386
74.3	10.8046
74.52	9.9581
74.74	7.20734
74.96	1.18975
75.18	1.83349
75.4	11.4429
75.62	7.29345
75.84	0.413735
76.06	10.7327
76.28	6.67569
76.5	1.29441
76.72	8.29441
76.94	4.44478
77.16	2.77357
77.38	11.872
77.6	8.86984
77.82	6.87106
78.04	6.33845
78.26	6.34115
78.48	4.45767
78.7	4.4788
78.92	7.40128
79.14	5.30392
79.36	3.83682
79.58	8.88951
79.8	0.646003
80.02	6.17516
80.24	7.02541
80.46	4.3637
80.68	1.49224
80.9	3.60855
81.12	7.58342
81.34	16.7354
81.56	0.963907
81.78	5.65115
82	1.20886
82.22	14.4802
82.44	4.73963
82.66	8.01694
82.88	10.2537
83.1	16.2401
83.32	4.38851
83.54	3.33082
83.76	1.44956
83.98	6.63344
84.2	9.62537
84.42	1.42673
84.64	0.649266
84.86	7.55305
85.08	0.662925
85.3	8.78882
85.52	6.92824
85.74	7.01254
85.96	8.17728
86.18	3.23284
86.4	4.34794
86.62	16.5346
86.84	0.646879
87.06	10.7877
87.28	1.93689
87.5	9.01977
87.72	0.052903
87.94	10.0143
88.16	3.78608
88.38	6.65459
88.6	8.6659
88.82	6.73945
89.04	8.75969
89.26	8.62009
89.48	7.84239
89.7	4.11573
89.92	4.82816
