Measurement: Powder, Xray Data XY Processed
Mineral: Staurolite
Rruff sample: R050079
Ideal chemistry: Fe^2+^_2_Al_9_Si_4_O_23_(OH)
Locality: Keivy, Kola Peninsula, Russia
Source: Rock Currier
Description: Brown cruciform twins
Diffraction sample description: Powder, the (00l) peaks of muscovite are also present
Measured chemistry: (Fe^2+^_0.77_Mg_0.23_)_2_(Al_0.99_Ti_0.01_)_9_(Si_0.99_Al_0.01_)_4_O_20_(O_0.76_(OH)_0.24_)_4_
Cell parameters: a: 7.8680(7) b: 16.619(1) c: 5.6563(4) alpha: 90 beta: 90 gamma: 90 volume: 739.61(7) crystal system: orthorhombic
x	intensity
5	0
5.22	13.941
5.44	24.772
5.66	9.507
5.88	20.983
6.1	23.124
6.32	41.249
6.54	13.038
6.76	12.46
6.98	13.823
7.2	16.49
7.42	4.416
7.64	3.627
7.86	6.516
8.08	2.049
8.3	12.057
8.52	13.25
8.74	0.299
8.96	108.781
9.18	11.654
9.4	12.663
9.62	16.327
9.84	12.548
10.06	19.276
10.28	22.703
10.5	15.688
10.72	17.744
10.94	5.949
11.16	23.432
11.38	11.328
11.6	5.254
11.82	15.917
12.04	6.861
12.26	9.552
12.48	118.198
12.7	8.995
12.92	14.124
13.14	3.286
13.36	11.139
13.58	15.742
13.8	14.283
14.02	13.364
14.24	10.514
14.46	1.129
14.68	2.508
14.9	0.511
15.12	9.077
15.34	9.157
15.56	16.396
15.78	9.568
16	9.751
16.22	13.675
16.44	20.223
16.66	1.948
16.88	26.046
17.1	8.927
17.32	6.377
17.54	14.177
17.76	9.108
17.98	15.783
18.2	0.385
18.42	23.355
18.64	9.346
18.86	67.551
19.08	5.832
19.3	8.841
19.52	10.026
19.74	10.298
19.96	0.2
20.18	3.572
20.4	15.253
20.62	18.268
20.84	54.461
21.06	17.023
21.28	16.138
21.5	13.598
21.72	18.436
21.94	24.058
22.16	20.148
22.38	18.233
22.6	21.584
22.82	5.107
23.04	11.699
23.26	13.86
23.48	5.543
23.7	17.244
23.92	39.584
24.14	14.319
24.36	23.592
24.58	6.37
24.8	12.394
25.02	24.886
25.24	76.311
25.46	8.428
25.68	15.191
25.9	0.763
26.12	1.58
26.34	0.831
26.56	12.946
26.78	206.651
27	34.455
27.22	11.541
27.44	15.799
27.66	35.916
27.88	65.315
28.1	15.642
28.32	13.216
28.54	7.263
28.76	6.324
28.98	21.478
29.2	118.13
29.42	3.295
29.64	21.701
29.86	3.355
30.08	16.1
30.3	6.941
30.52	14.963
30.74	5.646
30.96	10.234
31.18	12.779
31.4	16.698
31.62	20.95
31.84	12.124
32.06	22.611
32.28	14.869
32.5	14.006
32.72	10.923
32.94	7.511
33.16	36.576
33.38	49.931
33.6	5.185
33.82	17.472
34.04	16.732
34.26	2.678
34.48	7.983
34.7	16.306
34.92	15.387
35.14	26.429
35.36	33.013
35.58	9.792
35.8	5.974
36.02	10.838
36.24	19.633
36.46	15.493
36.68	73.447
36.9	9.331
37.12	18.015
37.34	20.527
37.56	49.041
37.78	7.943
38	42.814
38.22	89.426
38.44	11.557
38.66	10.863
38.88	15.385
39.1	11.539
39.32	22.471
39.54	18.463
39.76	20.641
39.98	8.644
40.2	13.344
40.42	59.631
40.64	19.145
40.86	6.137
41.08	26.062
41.3	15.609
41.52	2.439
41.74	35.541
41.96	16.523
42.18	6.414
42.4	14.522
42.62	8.402
42.84	7.378
43.06	6.861
43.28	19.755
43.5	8.46
43.72	4.978
43.94	23.766
44.16	3.025
44.38	6.389
44.6	8.213
44.82	0.707
45.04	3.411
45.26	8.49
45.48	17.006
45.7	13.125
45.92	63.095
46.14	55.868
46.36	7.872
46.58	5.771
46.8	15.601
47.02	18.693
47.24	18.93
47.46	5.095
47.68	16.395
47.9	3.681
48.12	23.475
48.34	29.527
48.56	14.498
48.78	20.567
49	4.478
49.22	6.436
49.44	17.598
49.66	1.341
49.88	13.671
50.1	3.268
50.32	30.249
50.54	10.159
50.76	11.383
50.98	10.986
51.2	7.544
51.42	8.44
51.64	9.765
51.86	1.779
52.08	3.797
52.3	12.335
52.52	52.916
52.74	1.195
52.96	2.772
53.18	10.404
53.4	17.138
53.62	18.017
53.84	27.993
54.06	3.515
54.28	14.125
54.5	25.369
54.72	5.488
54.94	42.94
55.16	20.403
55.38	8.913
55.6	0.752
55.82	9.218
56.04	2.381
56.26	23.605
56.48	0.122
56.7	24.942
56.92	16.847
57.14	0.89
57.36	32.696
57.58	8.761
57.8	14.367
58.02	13.59
58.24	19.899
58.46	11.591
58.68	20.836
58.9	29.466
59.12	30.233
59.34	3.394
59.56	1.836
59.78	23.137
60	147.629
60.22	60.314
60.44	6.969
60.66	14.445
60.88	6.554
61.1	30.229
61.32	8.516
61.54	30.297
61.76	4.263
61.98	3.948
62.2	17.225
62.42	19.167
62.64	17.711
62.86	24.787
63.08	14.512
63.3	9.282
63.52	5.925
63.74	15.959
63.96	19.782
64.18	26.74
64.4	13.269
64.62	15.851
64.84	9.525
65.06	3.089
65.28	4.212
65.5	17.893
65.72	12.061
65.94	9.93
66.16	15.062
66.38	18.825
66.6	6.46
66.82	6.138
67.04	72.214
67.26	11.669
67.48	9.052
67.7	20.894
67.92	10.569
68.14	31.252
68.36	19.847
68.58	22.02
68.8	11.672
69.02	16.122
69.24	4.631
69.46	1.029
69.68	6.536
69.9	19.33
70.12	15.764
70.34	5.119
70.56	5.177
70.78	13.174
71	5.651
71.22	7.416
71.44	5.999
71.66	14.883
71.88	12.303
72.1	17.331
72.32	14.358
72.54	5.425
72.76	13.361
72.98	4.391
73.2	0.754
73.42	2.081
73.64	13.306
73.86	8.786
74.08	7.673
74.3	19.092
74.52	17.967
74.74	25.291
74.96	23.248
75.18	14.65
75.4	8.932
75.62	13.096
75.84	13.227
76.06	18.356
76.28	7.333
76.5	8.176
76.72	4.154
76.94	9.213
77.16	16.807
77.38	6.277
77.6	2.504
77.82	8.442
78.04	13.57
78.26	19.29
78.48	16.105
78.7	14.802
78.92	14.711
79.14	20.672
79.36	7.119
79.58	23.836
79.8	11.123
80.02	11.953
80.24	23.195
80.46	14.67
80.68	18.744
80.9	19.119
81.12	5.935
81.34	9.501
81.56	23.77
81.78	7.277
82	13.389
82.22	4.538
82.44	7.6
82.66	22.789
82.88	5.832
83.1	12.193
83.32	16.192
83.54	13.231
83.76	11.626
83.98	8.752
84.2	9.541
84.42	7.316
84.64	15.399
84.86	11.094
85.08	8.158
85.3	15.377
85.52	22.214
85.74	10.341
85.96	4.736
86.18	7.343
86.4	3.295
86.62	17.106
86.84	6.318
87.06	10.052
87.28	4.26
87.5	13.119
87.72	22.973
87.94	6.975
88.16	1.068
88.38	7.057
88.6	11.435
88.82	6.029
89.04	16.07
89.26	6.675
89.48	3.976
89.7	4.449
89.92	6.885
