Measurement: Powder, Xray Data XY Processed
Mineral: Stephanite
Rruff sample: R050143
Ideal chemistry: Ag^1+^_5_Sb^3+^S^2-^_4_
Locality: Proano mine, Fresnillo, Zacatecas, Mexico
Source: Dave Bunk Minerals
Description: Group of black pseudohexagonal crystals
Diffraction sample description: Powder
Measured chemistry: Ag_5.00_Sb_1.00_S_4.00_
Cell parameters: a: 7.8396(7) b: 12.4684(9) c: 8.536(1) alpha: 90 beta: 90 gamma: 90 volume: 834.38(9) crystal system: orthorhombic
x	intensity
5	0
5.22	3.633
5.44	1.542
5.66	6.491
5.88	3.578
6.1	2.62
6.32	0.344
6.54	1.758
6.76	4.817
6.98	10.909
7.2	3.922
7.42	5.985
7.64	3.096
7.86	2.084
8.08	1.12
8.3	7.166
8.52	8.077
8.74	3.271
8.96	6.231
9.18	2.472
9.4	6.531
9.62	2.553
9.84	7.717
10.06	3.772
10.28	3.796
10.5	1.843
10.72	3.965
10.94	4.02
11.16	1.861
11.38	1.016
11.6	2.85
11.82	4.976
12.04	4.054
12.26	2.988
12.48	2.936
12.7	4.959
12.92	3.038
13.14	0.982
13.36	2.991
13.58	7.179
13.8	4.114
14.02	3.137
14.24	8.078
14.46	4.143
14.68	0.155
14.9	0.209
15.12	0.204
15.34	1.139
15.56	1.132
15.78	1.118
16	2.984
16.22	0.092
16.44	7.014
16.66	1.956
16.88	3.842
17.1	10.899
17.32	3.962
17.54	1.09
17.76	5.159
17.98	4.174
18.2	6.128
18.42	0.79
18.64	0.274
18.86	4.118
19.08	3.106
19.3	5.113
19.52	3.019
19.74	3.853
19.96	4.689
20.18	1.652
20.4	2.654
20.62	1.768
20.84	3.618
21.06	2.649
21.28	4.681
21.5	1.676
21.72	2.681
21.94	2.651
22.16	0.818
22.38	0.253
22.6	0.691
22.82	0.388
23.04	0.44
23.26	0.297
23.48	0.142
23.7	2.005
23.92	3.865
24.14	1.649
24.36	5.504
24.58	2.226
24.8	14.226
25.02	8.054
25.24	10.122
25.46	15.998
25.68	2.984
25.9	1.04
26.12	2.179
26.34	6.26
26.56	16.322
26.78	3.396
27	3.487
27.22	5.353
27.44	2.326
27.66	5.135
27.88	2.074
28.1	2.997
28.32	6.882
28.54	5.971
28.76	33.898
28.98	77.655
29.2	6.65
29.42	6.437
29.64	0.306
29.86	0.853
30.08	4.981
30.3	3.884
30.52	28.786
30.74	15.684
30.96	22.403
31.18	36.262
31.4	0.329
31.62	1.499
31.84	3.852
32.06	11.073
32.28	23.392
32.5	3.778
32.72	3.001
32.94	4.327
33.16	4.249
33.38	1.239
33.6	0.172
33.82	0.957
34.04	1.752
34.26	4.388
34.48	8.135
34.7	101.814
34.92	2.562
35.14	5.63
35.36	6.508
35.58	4.46
35.8	19.491
36.02	3.602
36.24	0.941
36.46	2.158
36.68	22.23
36.9	11.384
37.12	1.519
37.34	3.452
37.56	1.309
37.78	5.306
38	5.667
38.22	0.798
38.44	17.861
38.66	12.046
38.88	5.15
39.1	4.179
39.32	4.577
39.54	5.511
39.76	1.365
39.98	4.189
40.2	4.806
40.42	0.634
40.64	1.054
40.86	11.538
41.08	13.746
41.3	5.104
41.52	5.87
41.74	7.167
41.96	3.972
42.18	9.935
42.4	11.006
42.62	14.194
42.84	13.644
43.06	6.142
43.28	5.966
43.5	1.439
43.72	9.027
43.94	1.611
44.16	1.849
44.38	0.68
44.6	1.705
44.82	6.871
45.04	12.053
45.26	3.896
45.48	6.775
45.7	5.453
45.92	3.611
46.14	4.791
46.36	4.737
46.58	4.706
46.8	1.329
47.02	0.103
47.24	0.031
47.46	2.569
47.68	6.127
47.9	4.613
48.12	2.128
48.34	6.519
48.56	11.755
48.78	6.326
49	3.905
49.22	9.086
49.44	9.21
49.66	17.016
49.88	8.116
50.1	1.325
50.32	1.606
50.54	4.973
50.76	5.301
50.98	12.726
51.2	5.362
51.42	9.815
51.64	4.212
51.86	2.369
52.08	3.053
52.3	0.498
52.52	0.771
52.74	6.997
52.96	2.103
53.18	4.249
53.4	2.345
53.62	9.159
53.84	1.112
54.06	2.832
54.28	0.529
54.5	4.142
54.72	8.963
54.94	0.21
55.16	6.614
55.38	8.474
55.6	11.518
55.82	1.417
56.04	14.313
56.26	11.168
56.48	7.32
56.7	3.511
56.92	1.695
57.14	8.797
57.36	2.105
57.58	0.7
57.8	0.56
58.02	0.287
58.24	5.785
58.46	1.05
58.68	3.13
58.9	0.023
59.12	1.048
59.34	3.933
59.56	2.903
59.78	8.65
60	1.528
60.22	1.298
60.44	8.11
60.66	0.952
60.88	6.855
61.1	1.882
61.32	0.986
61.54	1.935
61.76	6.063
61.98	3.17
62.2	3.4
62.42	2.469
62.64	5.489
62.86	3.565
63.08	4.751
63.3	9.788
63.52	5.674
63.74	5.842
63.96	3.869
64.18	7.851
64.4	2.855
64.62	6.72
64.84	0.157
65.06	4.036
65.28	3.024
65.5	1.852
65.72	3.852
65.94	2.907
66.16	0.802
66.38	7.73
66.6	2.508
66.82	0.471
67.04	1.557
67.26	2.484
67.48	5.439
67.7	2.412
67.92	2.533
68.14	1.413
68.36	4.483
68.58	7.366
68.8	2.404
69.02	3.445
69.24	0.479
69.46	2.356
69.68	7.21
69.9	0.844
70.12	8.262
70.34	3.116
70.56	2.129
70.78	1.309
71	0.376
71.22	5.359
71.44	2.372
71.66	1.331
71.88	2.524
72.1	6.585
72.32	6.59
72.54	2.612
72.76	3.778
72.98	3.828
73.2	1.767
73.42	0.834
73.64	1.962
73.86	3.118
74.08	8.132
74.3	3.083
74.52	5.077
74.74	3.11
74.96	5.06
75.18	0.883
75.4	3.702
75.62	0.479
75.84	3.392
76.06	3.286
76.28	7.103
76.5	3.99
76.72	3.898
76.94	5.898
77.16	8.811
77.38	1.834
77.6	4.077
77.82	7.315
78.04	5.383
78.26	3.311
78.48	5.296
78.7	2.218
78.92	5.241
79.14	4.165
79.36	5.056
79.58	5.012
79.8	0.881
80.02	6.788
80.24	11.618
80.46	8.812
80.68	2.042
80.9	2.208
81.12	1.663
81.34	0.482
81.56	4.605
81.78	1.727
82	1.965
82.22	5.118
82.44	0.048
82.66	6.056
82.88	8.972
83.1	0.84
83.32	0.781
83.54	1.838
83.76	4.758
83.98	3.901
84.2	4.973
84.42	11.975
84.64	6.059
84.86	4.065
85.08	1.153
85.3	6.069
85.52	3.061
85.74	1.054
85.96	9.059
86.18	5.106
86.4	5.899
86.62	2.019
86.84	0.238
87.06	5.701
87.28	2.762
87.5	2.771
87.72	2.824
87.94	0.891
88.16	0.999
88.38	5.088
88.6	4.258
88.82	8.316
89.04	6.448
89.26	4.552
89.48	4.844
89.7	0.835
89.92	0.596
