Measurement: Powder, Xray Data XY Processed
Mineral: Stephanite
Rruff sample: R050309
Ideal chemistry: Ag^1+^_5_Sb^3+^S^2-^_4_
Locality: Sonora, Mexico
Source: Eugene Schlepp
Description: Black fragment in quartz, associated with pyrargyrite. Electron microscope image shows two fine-scale phases.
Diffraction sample description: Powder
Measured chemistry: Ag_5.22_(Sb_0.93_As_0.10_)_Î£=1.03_S_4.00_
Cell parameters: a: 7.817(1) b: 12.448(4) c: 8.536(2) alpha: 90 beta: 90 gamma: 90 volume: 830.7(0) crystal system: orthorhombic
x	intensity
5	0
5.22	1.78173
5.44	2.83053
5.66	2.26288
5.88	1.69935
6.1	13.0356
6.32	2.70971
6.54	15.2709
6.76	7.69038
6.98	3.0179
7.2	2.46073
7.42	3.92923
7.64	5.30201
7.86	5.65437
8.08	3.91217
8.3	1.26934
8.52	5.45632
8.74	1.59946
8.96	2.38686
9.18	2.51847
9.4	7.68481
9.62	0.720734
9.84	2.76417
10.06	0.84903
10.28	2.87722
10.5	0.989537
10.72	8.97433
10.94	3.12814
11.16	3.14068
11.38	3.21822
11.6	2.34749
11.82	2.36052
12.04	0.319108
12.26	3.31929
12.48	0.36482
12.7	0.274186
12.92	4.31368
13.14	6.35422
13.36	4.26404
13.58	3.30219
13.8	5.34732
14.02	0.296647
14.24	2.31123
14.46	3.36621
14.68	0.618278
14.9	2.41144
15.12	4.49121
15.34	0.503154
15.56	5.57173
15.78	2.59747
16	3.5735
16.22	3.5842
16.44	4.58269
16.66	1.59377
16.88	2.62072
17.1	6.67485
17.32	6.64285
17.54	2.61023
17.76	1.60632
17.98	1.54508
18.2	6.5639
18.42	1.58642
18.64	0.537662
18.86	0.500334
19.08	1.49175
19.3	2.49455
19.52	1.46813
19.74	1.39491
19.96	1.42428
20.18	2.42353
20.4	1.4209
20.62	1.4154
20.84	3.42232
21.06	5.42579
21.28	1.39142
21.5	0.398307
21.72	4.2875
21.94	1.34175
22.16	2.43334
22.38	1.42558
22.6	5.41497
22.82	0.428566
23.04	3.34455
23.26	1.20055
23.48	3.08806
23.7	2.97276
23.92	4.80091
24.14	4.71528
24.36	5.48886
24.58	0.312939
24.8	7.26683
25.02	4.21663
25.24	7.14616
25.46	9.08193
25.68	1.08466
25.9	5.24284
26.12	1.28486
26.34	2.27389
26.56	3.32263
26.78	2.36293
27	3.40361
27.22	2.16257
27.44	2.03775
27.66	3.84922
27.88	5.74478
28.1	3.56482
28.32	6.524
28.54	3.62812
28.76	11.4788
28.98	19.4092
29.2	10.1944
29.42	3.93319
29.64	3.83263
29.86	10.6954
30.08	3.5748
30.3	3.4629
30.52	3.5292
30.74	15.5151
30.96	8.22778
31.18	17.197
31.4	6.17103
31.62	0.548164
31.84	0.698599
32.06	6.95195
32.28	9.16295
32.5	1.37184
32.72	3.67501
32.94	2.94331
33.16	3.77011
33.38	6.78808
33.6	1.7709
33.82	1.27595
34.04	0.517182
34.26	3.35754
34.48	3.12723
34.7	24.9651
34.92	13.9002
35.14	3.74841
35.36	4.66867
35.58	2.62464
35.8	8.65946
36.02	6.72822
36.24	0.134393
36.46	1.16129
36.68	7.21587
36.9	4.44746
37.12	3.65772
37.34	6.71826
37.56	0.599339
37.78	0.713587
38	0.052275
38.22	6.04579
38.44	10.1853
38.66	6.22689
38.88	13.2439
39.1	2.2591
39.32	4.27378
39.54	3.12794
39.76	0.081688
39.98	0.926174
40.2	2.7123
40.42	5.41964
40.64	5.18179
40.86	7.92372
41.08	3.61918
41.3	6.19613
41.52	0.017859
41.74	4.69763
41.96	4.64852
42.18	3.58091
42.4	9.62291
42.62	5.79771
42.84	3.16304
43.06	7.5105
43.28	3.85553
43.5	7.1611
43.72	6.48617
43.94	5.87208
44.16	4.24018
44.38	1.53049
44.6	3.82521
44.82	3.08962
45.04	5.13948
45.26	0.926711
45.48	2.9296
45.7	1.95153
45.92	2.01968
46.14	9.92716
46.36	2.78266
46.58	5.72849
46.8	1.56079
47.02	3.34691
47.24	5.09117
47.46	1.89372
47.68	6.71106
47.9	0.500558
48.12	6.28643
48.34	2.00369
48.56	1.85482
48.78	2.68738
49	4.44913
49.22	12.3963
49.44	5.67335
49.66	4.57623
49.88	2.73721
50.1	6.84118
50.32	4.02217
50.54	5.15951
50.76	6.29722
50.98	9.52425
51.2	6.67122
51.42	2.73436
51.64	3.80143
51.86	1.75408
52.08	0.910071
52.3	4.03775
52.52	1.14105
52.74	5.20594
52.96	0.277876
53.18	1.3382
53.4	0.55281
53.62	3.51216
53.84	3.62845
54.06	6.67267
54.28	4.5352
54.5	3.4215
54.72	5.29202
54.94	3.14823
55.16	2.01528
55.38	2.01278
55.6	6.09955
55.82	2.92295
56.04	4.83271
56.26	0.292991
56.48	1.65139
56.7	0.719222
56.92	7.7288
57.14	0.805385
57.36	5.95086
57.58	4.08134
57.8	1.14321
58.02	0.21462
58.24	5.30245
58.46	5.40195
58.68	0.563368
58.9	1.49867
59.12	1.61219
59.34	4.59474
59.56	6.58243
59.78	0.45913
60	1.29381
60.22	8.24758
60.44	3.08119
60.66	2.05566
60.88	9.08555
61.1	9.11435
61.32	2.10302
61.54	0.055696
61.76	1.21328
61.98	1.14396
62.2	3.22302
62.42	3.34097
62.64	0.582581
62.86	0.408321
63.08	3.43562
63.3	3.48573
63.52	6.40783
63.74	0.509772
63.96	7.54674
64.18	1.50337
64.4	5.45698
64.62	1.44283
64.84	0.363831
65.06	1.40541
65.28	2.47337
65.5	0.405262
65.72	4.36647
65.94	3.51542
66.16	0.435027
66.38	0.335466
66.6	4.33193
66.82	2.31657
67.04	0.299974
67.26	2.26482
67.48	3.29238
67.7	7.22592
67.92	2.15827
68.14	2.09033
68.36	2.02839
68.58	2.97664
68.8	10.031
69.02	5.03051
69.24	0.044312
69.46	4.11054
69.68	3.18757
69.9	1.0771
70.12	3.22017
70.34	6.3284
70.56	5.40558
70.78	0.428128
71	1.44447
71.22	3.48521
71.44	3.57319
71.66	1.61898
71.88	4.63999
72.1	6.72016
72.32	1.70731
72.54	0.704994
72.76	5.83056
72.98	4.9234
73.2	0.913858
73.42	0.959542
73.64	0.903073
73.86	1.83436
74.08	2.86529
74.3	1.77962
74.52	4.62438
74.74	0.536081
74.96	4.35119
75.18	1.185
75.4	5.14272
75.62	4.05058
75.84	2.12568
76.06	2.03247
76.28	5.17474
76.5	2.09325
76.72	2.10147
76.94	1.1671
77.16	2.22803
77.38	2.29206
77.6	3.28095
77.82	5.218
78.04	0.789243
78.26	3.20059
78.48	3.1742
78.7	0.002538
78.92	2.98223
79.14	1.02279
79.36	1.97347
79.58	3.01541
79.8	5.1355
80.02	2.21302
80.24	5.18139
80.46	4.3277
80.68	5.28791
80.9	1.45231
81.12	0.534957
81.34	2.6886
81.56	9.69093
81.78	3.87621
82	4.78893
82.22	0.737299
82.44	6.71003
82.66	1.70195
82.88	5.55148
83.1	7.54734
83.32	1.49763
83.54	1.47452
83.76	3.34417
83.98	3.34174
84.2	2.25492
84.42	2.18691
84.64	2.16783
84.86	2.10731
85.08	4.06653
85.3	5.11735
85.52	3.19036
85.74	3.11499
85.96	4.22517
86.18	8.36918
86.4	1.45181
86.62	1.49559
86.84	2.57488
87.06	2.62634
87.28	1.27866
87.5	2.79736
87.72	9.73081
87.94	3.78757
88.16	3.89401
88.38	2.92725
88.6	0.122782
88.82	2.82429
89.04	0.878648
89.26	1.93271
89.48	1.04422
89.7	5.03715
89.92	1.84028
