Measurement: Powder, Xray Data XY Processed
Mineral: Stephanite
Rruff sample: R050306
Ideal chemistry: Ag^1+^_5_Sb^3+^S^2-^_4_
Locality: Atlanta, Idaho, USA
Source: Eugene Schlepp
Description: Dark gray metallic crystals associated with quartz
Diffraction sample description: Single crystal, powder profile is calculated
Measured chemistry: Ag_5.00_Sb_1.00_S_4.00_
Cell parameters: a: 7.821(7) b: 12.446(6) c: 8.528(5) alpha: 90 beta: 90 gamma: 90 volume: 830(1) crystal system: orthorhombic
x	intensity
5	0
5.22	0
5.44	0
5.66	0
5.88	0
6.1	0
6.32	0
6.54	0
6.76	0
6.98	0
7.2	0
7.42	0
7.64	0
7.86	0
8.08	0
8.3	0
8.52	0
8.74	0
8.96	0
9.18	0
9.4	0
9.62	0
9.84	0
10.06	0
10.28	0
10.5	0
10.72	0
10.94	0
11.16	0
11.38	0
11.6	0
11.82	0
12.04	0
12.26	0
12.48	0
12.7	0
12.92	0
13.14	0
13.36	0.38
13.58	0
13.8	0
14.02	0
14.24	5.319
14.46	0
14.68	0
14.9	0
15.12	0
15.34	0
15.56	0
15.78	0
16	0
16.22	0
16.44	0
16.66	0
16.88	3.128
17.1	0
17.32	0
17.54	1.02
17.76	0
17.98	0
18.2	0
18.42	0
18.64	0
18.86	0
19.08	0
19.3	0
19.52	0
19.74	0
19.96	0
20.18	0
20.4	0
20.62	0.388
20.84	0.001
21.06	0
21.28	0
21.5	0
21.72	0
21.94	0
22.16	0
22.38	0
22.6	2.295
22.82	0
23.04	0
23.26	0
23.48	0
23.7	0
23.92	0
24.14	1.415
24.36	0.01
24.58	0.464
24.8	0.36
25.02	0
25.24	9.951
25.46	0
25.68	0
25.9	0
26.12	0
26.34	11.038
26.56	0
26.78	2.724
27	0
27.22	0
27.44	0
27.66	0
27.88	0
28.1	0
28.32	0
28.54	0.556
28.76	92.649
28.98	0
29.2	0
29.42	0
29.64	0
29.86	0
30.08	0
30.3	0
30.52	32.801
30.74	8.408
30.96	0.46
31.18	0
31.4	0
31.62	0
31.84	0
32.06	18.08
32.28	0
32.5	0
32.72	0
32.94	0
33.16	0
33.38	0
33.6	0
33.82	0
34.04	2.068
34.26	0.03
34.48	55.542
34.7	0
34.92	0.123
35.14	0
35.36	0
35.58	19.106
35.8	0.001
36.02	0
36.24	0
36.46	15.925
36.68	0.131
36.9	0
37.12	0
37.34	0
37.56	0
37.78	0.462
38	0.011
38.22	5.647
38.44	0.464
38.66	0
38.88	0
39.1	0
39.32	2.321
39.54	0
39.76	0
39.98	0.718
40.2	0
40.42	0
40.64	4.72
40.86	3.969
41.08	2.931
41.3	0
41.52	0.647
41.74	1.716
41.96	2.552
42.18	5.69
42.4	0.002
42.62	5.144
42.84	1.783
43.06	0.116
43.28	0
43.5	3.309
43.72	0.003
43.94	0
44.16	0
44.38	0.143
44.6	0.342
44.82	4.942
45.04	0.211
45.26	0
45.48	0
45.7	0
45.92	0.037
46.14	2.333
46.36	0
46.58	0
46.8	0
47.02	0
47.24	0
47.46	0.388
47.68	3.323
47.9	0
48.12	0.001
48.34	2.007
48.56	0.442
48.78	4.187
49	9.394
49.22	2.647
49.44	0.008
49.66	7.061
49.88	1.343
50.1	0.001
50.32	0.002
50.54	4.022
50.76	7.913
50.98	2.559
51.2	0.387
51.42	0
51.64	3.464
51.86	0.074
52.08	0.252
52.3	0.149
52.52	0
52.74	0.075
52.96	0
53.18	0.177
53.4	0.135
53.62	0
53.84	1.766
54.06	0.007
54.28	1.724
54.5	0.518
54.72	0.316
54.94	0.001
55.16	2.036
55.38	2.237
55.6	0.565
55.82	3.64
56.04	0.038
56.26	3.433
56.48	0.33
56.7	0
56.92	0
57.14	1.219
57.36	0.135
57.58	0
57.8	0.525
58.02	0.554
58.24	0
58.46	0
58.68	0.009
58.9	0.267
59.12	0.005
59.34	0.411
59.56	0.991
59.78	0.033
60	0.262
60.22	0.267
60.44	0.218
60.66	1.796
60.88	0.071
61.1	0
61.32	0
61.54	0.039
61.76	0.312
61.98	0
62.2	0.222
62.42	0.138
62.64	0.572
62.86	0
63.08	2.118
63.3	3.703
63.52	1.191
63.74	0.009
63.96	0
64.18	0.636
64.4	0.072
64.62	0.001
64.84	0.042
65.06	0.018
65.28	1.718
65.5	0.572
65.72	0
65.94	0
66.16	0.052
66.38	0.036
66.6	0.012
66.82	0.599
67.04	1.589
67.26	1.54
67.48	0.102
67.7	0.137
67.92	0.088
68.14	0.008
68.36	0.221
68.58	0.16
68.8	0.029
69.02	0.033
69.24	1.73
69.46	0.754
69.68	0.204
69.9	0.724
70.12	0.274
70.34	0
70.56	0.342
70.78	0.255
71	0.001
71.22	0.77
71.44	0.259
71.66	1.039
71.88	2.237
72.1	1.129
72.32	0.081
72.54	0.004
72.76	0.066
72.98	0.015
73.2	0.193
73.42	0.073
73.64	0.009
73.86	0.007
74.08	0.053
74.3	0.029
74.52	0.412
74.74	0.251
74.96	0.105
75.18	0.439
75.4	0.297
75.62	0.055
75.84	0.318
76.06	0.465
76.28	0.316
76.5	0.445
76.72	0.202
76.94	0
77.16	0.494
77.38	0.241
77.6	0.186
77.82	0.24
78.04	0.054
78.26	0.139
78.48	0.076
78.7	0.641
78.92	0.246
79.14	0.795
79.36	1.396
79.58	1.05
79.8	0.606
80.02	0.703
80.24	0.197
80.46	0.022
80.68	0.169
80.9	0.035
81.12	0
81.34	0
81.56	0.269
81.78	0.487
82	0.327
82.22	1.858
82.44	1.432
82.66	0.195
82.88	0.255
83.1	0.118
83.32	0
83.54	0.168
83.76	0.159
83.98	0.488
84.2	0.099
84.42	0.028
84.64	0.018
84.86	0.061
85.08	0.043
85.3	0.167
85.52	0.26
85.74	0.047
85.96	0.007
86.18	0.027
86.4	0.118
86.62	0.48
86.84	0.249
87.06	0.697
87.28	0.085
87.5	0.247
87.72	0.127
87.94	0.365
88.16	0.505
88.38	0.076
88.6	0.019
88.82	0.232
89.04	0.196
89.26	0.114
89.48	0.007
89.7	0.005
89.92	1
