Measurement: Powder, Xray Data XY Processed
Mineral: Stibnite
Rruff sample: R050066
Ideal chemistry: Sb^3+^_2_S^2-^_3_
Locality: Wuling, Jiangxi Province, China
Source: Rock Currier
Description: Lead-gray prismatic crystal
Diffraction sample description: Powder
Measured chemistry: Sb_2.00_S_3.00_
Cell parameters: a: 11.3118(3) b: 3.8365(6) c: 11.2276(7) alpha: 90. beta: 90. gamma: 90. volume: 487.26(8) crystal system: orthorhombic
x	intensity
5	0
5.22	6.482
5.44	8.014
5.66	5.459
5.88	2.211
6.1	0.497
6.32	0.739
6.54	4.081
6.76	1.373
6.98	1.751
7.2	7.135
7.42	9.454
7.64	3.646
7.86	2.515
8.08	6.653
8.3	0.781
8.52	2.857
8.74	7.903
8.96	2.97
9.18	2.147
9.4	3.062
9.62	4.89
9.84	7.812
10.06	1.794
10.28	1.809
10.5	0.74
10.72	3.797
10.94	1.188
11.16	30.894
11.38	1.899
11.6	3.723
11.82	6.82
12.04	2.004
12.26	2.03
12.48	5.127
12.7	0.244
12.92	2.27
13.14	1.298
13.36	1.367
13.58	1.423
13.8	1.538
14.02	3.577
14.24	12.553
14.46	0.37
14.68	2.236
14.9	6.178
15.12	2.12
15.34	1.012
15.56	4.934
15.78	96.013
16	4.958
16.22	0.822
16.44	0.763
16.66	0.284
16.88	3.749
17.1	4.863
17.32	3.084
17.54	36.091
17.76	10.215
17.98	3.273
18.2	5.304
18.42	3.414
18.64	2.527
18.86	3.755
19.08	4.859
19.3	0.074
19.52	2.147
19.74	3.176
19.96	3.192
20.18	6.211
20.4	4.243
20.62	1.301
20.84	0.763
21.06	2.202
21.28	3.022
21.5	0.949
21.72	0.203
21.94	4.643
22.16	2.483
22.38	35.549
22.6	5.444
22.82	0.38
23.04	2.314
23.26	0.285
23.48	3.15
23.7	3.014
23.92	3.873
24.14	1.697
24.36	0.439
24.58	13.518
24.8	6.232
25.02	181.199
25.24	13.205
25.46	0.104
25.68	6.051
25.9	13.188
26.12	3.482
26.34	2.861
26.56	4.056
26.78	1.149
27	0.103
27.22	1.122
27.44	5.975
27.66	2.765
27.88	5.655
28.1	8.537
28.32	2.364
28.54	67.085
28.76	6.849
28.98	6.901
29.2	12.934
29.42	47.191
29.64	4.462
29.86	0.655
30.08	2.859
30.3	0.275
30.52	3.56
30.74	0.63
30.96	2.667
31.18	0.475
31.4	0.669
31.62	6.044
31.84	0.953
32.06	8.839
32.28	9.645
32.5	80.465
32.72	8.098
32.94	4.189
33.16	0.791
33.38	1.169
33.6	32.249
33.82	7.5
34.04	1.652
34.26	9.646
34.48	17.509
34.7	3.565
34.92	2.631
35.14	1.197
35.36	3.582
35.58	146.58
35.8	14.648
36.02	4.635
36.24	3.479
36.46	5.643
36.68	0.205
36.9	4.105
37.12	32.246
37.34	3.376
37.56	2.444
37.78	3.582
38	3.717
38.22	1.771
38.44	1.673
38.66	4.498
38.88	2.2
39.1	2.862
39.32	7.575
39.54	10.32
39.76	22.166
39.98	9.011
40.2	6.955
40.42	26.825
40.64	20.92
40.86	2.995
41.08	4.164
41.3	3.404
41.52	1.64
41.74	0.781
41.96	2.916
42.18	0.998
42.4	5.039
42.62	2.217
42.84	7.196
43.06	37.204
43.28	35.287
43.5	12.333
43.72	0.294
43.94	0.364
44.16	4.485
44.38	1.466
44.6	3.439
44.82	5.621
45.04	2.357
45.26	2.348
45.48	3.093
45.7	10.941
45.92	0.314
46.14	3.427
46.36	4.042
46.58	3.816
46.8	53.061
47.02	27.914
47.24	18.404
47.46	33.295
47.68	5.049
47.9	0.978
48.12	0.036
48.34	29.015
48.56	5.046
48.78	3.208
49	28.451
49.22	3.249
49.44	3.497
49.66	7.642
49.88	3.85
50.1	0.977
50.32	1.09
50.54	4.135
50.76	3.445
50.98	6.599
51.2	8.425
51.42	4.501
51.64	1.563
51.86	7.491
52.08	0.498
52.3	1.412
52.52	0.41
52.74	3.796
52.96	26.763
53.18	29.567
53.4	4.49
53.62	1.478
53.84	3.31
54.06	3.284
54.28	46.319
54.5	31.493
54.72	3.708
54.94	4.876
55.16	5.762
55.38	4.86
55.6	1.067
55.82	2.278
56.04	0.643
56.26	7.467
56.48	9.563
56.7	3.614
56.92	2.537
57.14	4.366
57.36	3.32
57.58	4.517
57.8	5.594
58.02	4.454
58.24	0.37
58.46	1.298
58.68	3.082
58.9	3.976
59.12	1.874
59.34	2.751
59.56	10.637
59.78	2.443
60	14.385
60.22	9.516
60.44	10.692
60.66	10.752
60.88	6.938
61.1	3.098
61.32	1.354
61.54	0.565
61.76	0.505
61.98	4.552
62.2	0.514
62.42	3.674
62.64	23.366
62.86	4.302
63.08	5.419
63.3	3.279
63.52	2.18
63.74	3.006
63.96	4.109
64.18	4.095
64.4	7.246
64.62	3.354
64.84	3.302
65.06	5.32
65.28	6.156
65.5	0.169
65.72	0.163
65.94	6.145
66.16	11.25
66.38	2.194
66.6	6.257
66.82	17.077
67.04	4.211
67.26	4.209
67.48	0.272
67.7	1.214
67.92	4.024
68.14	7.045
68.36	2.84
68.58	3.732
68.8	1.55
69.02	10.383
69.24	5.233
69.46	2.091
69.68	2.016
69.9	7.876
70.12	2.949
70.34	1.098
70.56	3.178
70.78	1.203
71	2.252
71.22	1.319
71.44	0.397
71.66	0.442
71.88	4.251
72.1	9.462
72.32	2.543
72.54	0.451
72.76	1.639
72.98	6.67
73.2	3.997
73.42	6.106
73.64	0.368
73.86	5.508
74.08	6.568
74.3	0.615
74.52	5.661
74.74	3.646
74.96	3.589
75.18	4.478
75.4	5.413
75.62	1.141
75.84	3.013
76.06	3.841
76.28	5.785
76.5	3.9
76.72	6.876
76.94	9.654
77.16	1.74
77.38	0.775
77.6	1.636
77.82	4.576
78.04	6.671
78.26	2.617
78.48	4.451
78.7	3.245
78.92	2.064
79.14	4.064
79.36	3.15
79.58	7.026
79.8	3.96
80.02	7.995
80.24	4.949
80.46	7.015
80.68	1.421
80.9	14.581
81.12	11.649
81.34	2.753
81.56	0.699
81.78	1.606
82	3.575
82.22	2.713
82.44	4.709
82.66	9.673
82.88	8.447
83.1	3.987
83.32	1.118
83.54	1.949
83.76	6.863
83.98	2.82
84.2	2.892
84.42	10.264
84.64	4.167
84.86	0.174
85.08	9.203
85.3	5.327
85.52	5.428
85.74	5.706
85.96	11.736
86.18	5.947
86.4	6.201
86.62	3.175
86.84	0.919
87.06	5.016
87.28	2.119
87.5	6.229
87.72	5.373
87.94	5.571
88.16	2.628
88.38	3.767
88.6	0.241
88.82	2.677
89.04	1.869
89.26	7.103
89.48	3.065
89.7	1.807
89.92	3.292
