Measurement: Powder, Xray Data XY Processed
Mineral: Stibiotantalite
Rruff sample: R050232
Ideal chemistry: Sb^3+^Ta^5+^O_4_
Locality: Himalaya mine, Mesa Grande, San Diego County, California, USA
Source: Marcus Origlieri
Description: Brown crystal fragment
Diffraction sample description: Powder
Measured chemistry: lighter and darker phases: Sb_1.00_(Ta_0.72_Nb_0.28_)_Î£=1_O_4_
Cell parameters: a: 4.9222(1) b: 5.5463(1) c: 11.8193(2) alpha: 90. beta: 90. gamma: 90. volume: 322.678(9) crystal system: orthorhombic
x	intensity
5	0
5.22	7.33741
5.44	1.21542
5.66	1.77869
5.88	9.29129
6.1	2.78051
6.32	5.50791
6.54	11.2034
6.76	15.0489
6.98	8.45412
7.2	10.1686
7.42	8.48445
7.64	9.08625
7.86	6.38783
8.08	0.403993
8.3	4.48997
8.52	12.5778
8.74	1.84969
8.96	9.82889
9.18	17.5759
9.4	9.98626
9.62	7.88045
9.84	12.913
10.06	3.86546
10.28	0.854333
10.5	3.87217
10.72	8.93911
10.94	8.88285
11.16	16.888
11.38	14.0151
11.6	5.17439
11.82	12.9198
12.04	5.01443
12.26	0.029179
12.48	12.3558
12.7	10.4454
12.92	2.79284
13.14	11.1287
13.36	4.33071
13.58	3.29102
13.8	10.1959
14.02	14.7955
14.24	0.201551
14.46	10.5907
14.68	7.3037
14.9	25.8416
15.12	9.44245
15.34	1.43999
15.56	9.02135
15.78	4.89501
16	11.1002
16.22	11.6543
16.44	11.1558
16.66	3.3111
16.88	8.48742
17.1	4.83826
17.32	3.16198
17.54	4.35579
17.76	11.1968
17.98	9.30961
18.2	7.16568
18.42	6.83576
18.64	3.85738
18.86	3.62659
19.08	8.25972
19.3	11.9594
19.52	110.266
19.74	6.92572
19.96	3.05516
20.18	4.02002
20.4	5.01413
20.62	1.29466
20.84	3.4429
21.06	8.60582
21.28	11.6713
21.5	11.9734
21.72	5.76657
21.94	1.66857
22.16	8.70938
22.38	15.2497
22.6	6.1088
22.82	6.5519
23.04	4.2137
23.26	6.99681
23.48	4.58077
23.7	1.38371
23.92	7.76732
24.14	12.1874
24.36	5.44989
24.58	2.78315
24.8	8.24373
25.02	2.16376
25.24	33.7083
25.46	71.1354
25.68	12.1968
25.9	19.9319
26.12	7.8144
26.34	10.9923
26.56	7.90641
26.78	8.83621
27	13.4424
27.22	4.90617
27.44	0.192039
27.66	2.71088
27.88	6.59159
28.1	14.3434
28.32	40.3353
28.54	1081.83
28.76	67.4826
28.98	43.0812
29.2	14.8183
29.42	8.99394
29.64	1.86919
29.86	0.544994
30.08	23.5953
30.3	271.603
30.52	5.96877
30.74	2.02841
30.96	16.7187
31.18	5.93512
31.4	2.47028
31.62	13.0641
31.84	10.3986
32.06	8.17759
32.28	54.169
32.5	7.22881
32.72	11.3153
32.94	27.2784
33.16	148.375
33.38	113.962
33.6	12.378
33.82	2.573
34.04	6.16549
34.26	8.72369
34.48	1.15551
34.7	10.472
34.92	8.60703
35.14	4.66568
35.36	9.43916
35.58	11.3845
35.8	33.2276
36.02	3.4829
36.24	11.0331
36.46	48.3104
36.68	16.3696
36.9	3.59337
37.12	1.84377
37.34	10.6164
37.56	13.2357
37.78	14.7866
38	3.99929
38.22	8.64298
38.44	4.79833
38.66	3.53864
38.88	1.78204
39.1	12.476
39.32	6.16197
39.54	17.1121
39.76	36.3666
39.98	5.69809
40.2	8.43989
40.42	7.60117
40.64	2.17724
40.86	23.4038
41.08	3.74894
41.3	8.03387
41.52	2.66514
41.74	2.12979
41.96	7.40724
42.18	3.57532
42.4	11.6047
42.62	8.92051
42.84	11.6937
43.06	11.1134
43.28	4.07902
43.5	6.7376
43.72	1.33797
43.94	25.4199
44.16	0.392764
44.38	2.70435
44.6	3.28705
44.82	64.6832
45.04	11.558
45.26	6.41985
45.48	13.2282
45.7	53.0465
45.92	5.79247
46.14	8.0041
46.36	20.1089
46.58	8.77983
46.8	0.943321
47.02	4.08464
47.24	2.12258
47.46	4.90798
47.68	8.37563
47.9	13.0812
48.12	125.754
48.34	8.40176
48.56	12.3134
48.78	10.1251
49	5.99672
49.22	7.74057
49.44	20.5015
49.66	14.2999
49.88	9.04742
50.1	99.7161
50.32	28.3214
50.54	7.1932
50.76	33.1222
50.98	5.67026
51.2	3.59471
51.42	6.07976
51.64	3.81555
51.86	1.52228
52.08	19.2543
52.3	8.07779
52.52	27.2701
52.74	86.1615
52.96	29.8381
53.18	11.1426
53.4	16.314
53.62	50.7791
53.84	0.230478
54.06	0.701939
54.28	4.18918
54.5	0.706429
54.72	12.7879
54.94	16.9583
55.16	57.1295
55.38	2.96078
55.6	6.01613
55.82	5.28307
56.04	4.6754
56.26	6.21196
56.48	13.1342
56.7	11.1253
56.92	10.3613
57.14	7.31044
57.36	15.7355
57.58	3.92031
57.8	4.4894
58.02	6.49212
58.24	19.3475
58.46	4.02194
58.68	3.60044
58.9	5.14788
59.12	31.1308
59.34	16.9271
59.56	5.15032
59.78	4.11667
60	9.76872
60.22	32.3172
60.44	11.5587
60.66	9.0459
60.88	94.2649
61.1	26.7177
61.32	13.2624
61.54	7.36016
61.76	0.083235
61.98	4.64597
62.2	36.1584
62.42	10.9516
62.64	8.30639
62.86	199.597
63.08	29.2655
63.3	16.3964
63.52	4.42886
63.74	7.40106
63.96	15.7141
64.18	9.73371
64.4	12.0012
64.62	14.2812
64.84	12.9884
65.06	0.098766
65.28	16.7513
65.5	2.14748
65.72	7.32438
65.94	8.57657
66.16	5.23711
66.38	6.57234
66.6	7.9973
66.82	13.8312
67.04	9.75032
67.26	4.86337
67.48	4.74967
67.7	10.0632
67.92	4.34875
68.14	0.326285
68.36	6.8817
68.58	3.89785
68.8	7.22084
69.02	7.37085
69.24	1.51477
69.46	11.1492
69.68	24.1123
69.9	21.6242
70.12	12.3427
70.34	8.61466
70.56	8.87409
70.78	17.0396
71	8.02581
71.22	6.0871
71.44	0.874118
71.66	9.30203
71.88	9.61503
72.1	11.1249
72.32	7.44998
72.54	5.53929
72.76	14.2508
72.98	1.88217
73.2	6.05569
73.42	7.20136
73.64	3.43183
73.86	6.36211
74.08	5.2177
74.3	6.42991
74.52	6.89133
74.74	7.68259
74.96	18.6929
75.18	22.9211
75.4	9.5643
75.62	10.8458
75.84	9.42785
76.06	16.0256
76.28	9.79468
76.5	13.5717
76.72	15.2053
76.94	6.15161
77.16	5.83142
77.38	15.5237
77.6	38.4169
77.82	22.4083
78.04	21.9933
78.26	28.0315
78.48	12.234
78.7	20.3877
78.92	6.58151
79.14	9.58499
79.36	3.41167
79.58	6.72954
79.8	5.25114
80.02	0.840267
80.24	18.8895
80.46	4.79821
80.68	7.81201
80.9	13.8434
81.12	25.7996
81.34	14.7051
81.56	8.1196
81.78	12.686
82	0.05834
82.22	8.33915
82.44	9.83023
82.66	8.14699
82.88	8.2642
83.1	0.093879
83.32	6.41225
83.54	3.53651
83.76	17.5453
83.98	14.9571
84.2	19.6273
84.42	0.099607
84.64	4.51804
84.86	5.10914
85.08	0.851475
85.3	4.49573
85.52	21.2232
85.74	16.7472
85.96	5.70399
86.18	6.58594
86.4	36.5253
86.62	24.0348
86.84	12.488
87.06	8.53052
87.28	6.11936
87.5	6.61428
87.72	5.39698
87.94	9.20134
88.16	6.9818
88.38	2.45449
88.6	11.1634
88.82	6.02649
89.04	10.2082
89.26	4.14288
89.48	4.21278
89.7	4.58917
89.92	3.05452
