Measurement: Powder, Xray Data XY Processed
Mineral: Stichtite
Rruff sample: R050475
Ideal chemistry: Mg_6_Cr^3+^_2_CO_3_(OH)_16_4H_2_O
Locality: near Dundas, Tasmania, Australia
Source: California Institute of Technology
Description: Aggregate of purple contorted plates
Diffraction sample description: Powder, using Mo radiation
Measured chemistry: Mg_6.00_(Cr_0.97_Fe^3+^_0.75_Al_0.28_)_Σ=2_(CO_3_)(OH)_16_·4H_2_O ; (dark phase) C not measured but estimated by difference; light inclusion: chromite (Mg_0.53_Fe^2+^_0.47_)_Σ=1_(Cr^3+^_1.62_Al_0.33_Fe^3+^_0.05_)_Σ=2_O_4_
Cell parameters: a: 3.146(2) b: 3.146(2) c: 24.53(9) alpha: 90 beta: 90 gamma: 120 volume: 210.3(7) crystal system: hexagonal
x	intensity
5	0
5.12	5.65424
5.24	7.51136
5.36	0.570107
5.48	24.3953
5.6	16.9373
5.72	1.93718
5.84	4.81714
5.96	8.47202
6.08	14.6423
6.2	14.8186
6.32	20.9886
6.44	20.4535
6.56	39.6473
6.68	49.0687
6.8	46.2675
6.92	54.8014
7.04	62.5445
7.16	75.1112
7.28	88.1693
7.4	76.7183
7.52	94.5481
7.64	109.285
7.76	111.078
7.88	105.837
8	130.136
8.12	142.745
8.24	158.48
8.36	176.65
8.48	179.936
8.6	230.628
8.72	307.646
8.84	385.69
8.96	392.104
9.08	317.766
9.2	261.984
9.32	225.037
9.44	205.127
9.56	176.508
9.68	166.109
9.8	155.45
9.92	131.201
10.04	154.88
10.16	216.712
10.28	340.27
10.4	325.169
10.52	372.69
10.64	378.583
10.76	222.974
10.88	148.225
11	148.228
11.12	154.111
11.24	135.752
11.36	126.269
11.48	118.056
11.6	77.13
11.72	52.7965
11.84	48.8704
11.96	30.3737
12.08	39.5797
12.2	28.7739
12.32	32.2377
12.44	27.9076
12.56	23.9384
12.68	25.0438
12.8	20.6279
12.92	24.4294
13.04	10.6886
13.16	20.8134
13.28	18.5353
13.4	16.0444
13.52	3.99728
13.64	7.72087
13.76	13.4149
13.88	17.8924
14	14.0761
14.12	11.9832
14.24	9.76343
14.36	6.51289
14.48	1.97441
14.6	4.86975
14.72	8.23523
14.84	10.2214
14.96	7.24261
15.08	19.7334
15.2	85.2239
15.32	222.54
15.44	468.481
15.56	682.747
15.68	747.095
15.8	691.576
15.92	603.638
16.04	482.402
16.16	342.628
16.28	223.913
16.4	188.14
16.52	229.944
16.64	246.72
16.76	262.164
16.88	255.976
17	259.14
17.12	283.936
17.24	298.918
17.36	352.065
17.48	402.55
17.6	389.808
17.72	304.35
17.84	215.267
17.96	171.956
18.08	139.393
18.2	101.005
18.32	88.6696
18.44	78.3097
18.56	60.497
18.68	39.8195
18.8	23.6656
18.92	10.3598
19.04	9.97893
19.16	7.62263
19.28	3.71155
19.4	4.8111
19.52	0.060516
19.64	8.8694
19.76	19.7201
19.88	43.5484
20	96.8711
20.12	142.179
20.24	179.251
20.36	198.919
20.48	219.05
20.6	226.426
20.72	211.994
20.84	173.465
20.96	106.202
21.08	61.7206
21.2	45.113
21.32	40.901
21.44	38.3873
21.56	42.1352
21.68	40.0389
21.8	39.262
21.92	32.6031
22.04	28.3091
22.16	27.7014
22.28	17.164
22.4	7.89925
22.52	4.20598
22.64	8.25334
22.76	6.5119
22.88	0.699738
23	8.02281
23.12	14.5341
23.24	36.9455
23.36	42.8597
23.48	54.9548
23.6	38.9387
23.72	27.7932
23.84	19.0323
23.96	14.1888
24.08	13.8445
24.2	25.9454
24.32	20.8692
24.44	26.8718
24.56	27.6562
24.68	18.9502
24.8	11.3316
24.92	7.01041
25.04	2.04013
25.16	4.33221
25.28	9.22978
25.4	10.9841
25.52	5.77657
25.64	19.5894
25.76	24.7668
25.88	34.5089
26	29.5207
26.12	58.8982
26.24	199.81
26.36	513.37
26.48	820.825
26.6	827.191
26.72	605.791
26.84	519.834
26.96	620.978
27.08	638.715
27.2	464.266
27.32	248.789
27.44	121.52
27.56	58.3998
27.68	53.7722
27.8	57.175
27.92	63.5521
28.04	46.3324
28.16	48.046
28.28	53.7397
28.4	85.4125
28.52	119.494
28.64	102.207
28.76	87.4211
28.88	63.4448
29	53.9419
29.12	33.277
29.24	20.3529
29.36	11.2936
29.48	4.73335
29.6	5.19865
29.72	5.2821
29.84	5.49226
29.96	4.69933
30.08	5.94913
30.2	6.15107
30.32	1.83439
30.44	13.3058
30.56	27.0841
30.68	69.4794
30.8	132.105
30.92	176.696
31.04	181.452
31.16	144.915
31.28	117.77
31.4	111.732
31.52	123.875
31.64	145.903
31.76	176.446
31.88	170.102
32	150.187
32.12	112.439
32.24	87.8849
32.36	67.0316
32.48	48.2542
32.6	50.1277
32.72	40.6793
32.84	28.3441
32.96	35.2803
33.08	32.1302
33.2	30.4603
33.32	25.394
33.44	35.8751
33.56	50.6518
33.68	58.6975
33.8	57.2927
33.92	49.5036
34.04	37.6036
34.16	27.0819
34.28	24.7232
34.4	18.93
34.52	20.3309
34.64	17.3668
34.76	19.8719
34.88	19.5987
35	17.8967
35.12	8.21971
35.24	7.8425
35.36	11.9333
35.48	6.19311
35.6	2.87601
35.72	1.65932
35.84	2.10545
35.96	0.969101
36.08	0.307716
36.2	3.34608
36.32	11.014
36.44	10.7754
36.56	12.4802
36.68	6.74708
36.8	1.52704
36.92	3.35476
37.04	3.7197
37.16	5.37042
37.28	13.5988
37.4	10.3371
37.52	9.9612
37.64	6.03974
37.76	4.99612
37.88	0.947807
38	3.60851
38.12	0.857948
38.24	0.850487
38.36	2.69013
38.48	2.71152
38.6	0.018227
38.72	4.12306
38.84	3.55707
38.96	7.19843
39.08	6.34737
39.2	7.71842
39.32	5.99838
39.44	7.62164
39.56	8.49998
39.68	5.20726
39.8	1.91972
39.92	7.20345
40.04	0.450096
40.16	2.16091
40.28	2.73312
40.4	0.585724
40.52	2.04516
40.64	1.6759
40.76	12.8696
40.88	32.0046
41	60.3109
41.12	76.4909
41.24	84.8095
41.36	77.329
41.48	84.2805
41.6	90.0779
41.72	86.5974
41.84	85.9126
41.96	83.8078
42.08	74.3618
42.2	61.6295
42.32	42.0673
42.44	35.2174
42.56	22.9773
42.68	16.1998
42.8	14.1891
42.92	21.0669
43.04	21.2245
43.16	30.0695
43.28	32.9318
43.4	37.785
43.52	37.0848
43.64	32.3202
43.76	22.4431
43.88	21.5896
44	19.5738
44.12	14.5496
44.24	13.7912
44.36	9.1809
44.48	10.7737
44.6	7.10755
44.72	10.4611
44.84	3.58157
44.96	2.36857
45.08	1.63924
45.2	8.37817
45.32	11.1203
45.44	14.7814
45.56	11.8952
45.68	14.4998
45.8	13.0971
45.92	5.67654
46.04	12.2419
46.16	12.38
46.28	18.6545
46.4	31.0658
46.52	48.8651
46.64	63.8967
46.76	69.2828
46.88	83.5795
47	86.9371
47.12	75.0461
47.24	61.7041
47.36	38.9807
47.48	33.342
47.6	22.4166
47.72	13.3805
47.84	20.0681
47.96	16.52
48.08	13.2248
48.2	20.0594
48.32	12.0633
48.44	8.54665
48.56	6.26607
48.68	0.045967
48.8	1.18414
48.92	0.798088
49.04	1.09972
49.16	4.65444
49.28	2.27324
49.4	0.007729
49.52	2.78339
49.64	6.42707
49.76	0.370026
49.88	1.012
50	2.68833
50.12	5.08758
50.24	11.8051
50.36	9.03706
50.48	7.20879
50.6	9.85993
50.72	6.86613
50.84	2.6358
50.96	2.99303
51.08	1.82858
51.2	7.8738
51.32	2.88597
51.44	3.75568
51.56	3.33694
51.68	3.56418
51.8	3.33826
51.92	6.4281
52.04	3.54555
52.16	6.6152
52.28	3.73394
52.4	0
