Measurement: Powder, Xray Data XY Processed
Mineral: Stilbite-Ca
Rruff sample: R050012
Ideal chemistry: NaCa_4_(Si_27_Al_9_)O_72_28H_2_O
Locality: Harborville, Nova Scotia, Canada
Source: University of Arizona Mineral Museum
Description: Globular aggregate of thin tabular white single crystals
Diffraction sample description: Powder
Measured chemistry: (Na_1.50_K_0.03_)_Σ=1.53_Ca_4.15_(Si_26.17_Al_9.83_)O_72_·27.91H_2_O; H_2_O estimated by difference
Cell parameters: a: 13.6241(3) b: 18.2618(4) c: 17.7852(3) alpha: 90. beta: 90.07(3) gamma: 90. volume: 4424.9(1) crystal system: monoclinic
x	intensity
5	0
5.22	15.048
5.44	1.772
5.66	8.24
5.88	5.106
6.1	9.293
6.32	4.489
6.54	9.175
6.76	19.978
6.98	12.581
7.2	7.432
7.42	9.526
7.64	10.029
7.86	12.599
8.08	5.339
8.3	2.607
8.52	1.267
8.74	18.71
8.96	2.301
9.18	2.828
9.4	14.427
9.62	259.917
9.84	77.685
10.06	31.114
10.28	14.387
10.5	13.222
10.72	1.497
10.94	4.932
11.16	0.643
11.38	6.925
11.6	4.756
11.82	5.22
12.04	0.137
12.26	9.881
12.48	3.406
12.7	2.282
12.92	5.042
13.14	1.874
13.36	3.105
13.58	4.351
13.8	9.399
14.02	10.125
14.24	4.425
14.46	4.606
14.68	5.632
14.9	2.589
15.12	1.345
15.34	10.267
15.56	0.578
15.78	6.45
16	7.306
16.22	3.291
16.44	15.32
16.66	18.323
16.88	14.326
17.1	5.974
17.32	4.498
17.54	8.368
17.76	4.311
17.98	6.982
18.2	3.568
18.42	5.136
18.64	0.24
18.86	13.033
19.08	139.172
19.3	45.294
19.52	41.037
19.74	6.742
19.96	13.615
20.18	25.502
20.4	3.373
20.62	15.297
20.84	44.348
21.06	5.361
21.28	2.811
21.5	7.217
21.72	18.651
21.94	612.443
22.16	48.161
22.38	24.85
22.6	5.324
22.82	4.953
23.04	6.624
23.26	2.023
23.48	15.762
23.7	10.322
23.92	7.755
24.14	32.226
24.36	1.952
24.58	20.485
24.8	77.973
25.02	50.547
25.24	24.6
25.46	38.611
25.68	47.7
25.9	13.189
26.12	14.2
26.34	51.51
26.56	23.994
26.78	9.334
27	10.379
27.22	2.199
27.44	0.333
27.66	8.605
27.88	15.334
28.1	68.377
28.32	13.501
28.54	11.1
28.76	22.75
28.98	12.138
29.2	10.753
29.42	204.926
29.64	118.387
29.86	59.694
30.08	12.137
30.3	5.121
30.52	7.193
30.74	3.223
30.96	6.575
31.18	24.91
31.4	2.23
31.62	1.686
31.84	29.603
32.06	8.419
32.28	130.858
32.5	14.181
32.72	1.224
32.94	61.725
33.16	12.221
33.38	14.888
33.6	0.403
33.82	1.788
34.04	0.849
34.26	0.967
34.48	19.173
34.7	21.231
34.92	33.222
35.14	51.514
35.36	12.818
35.58	25.472
35.8	38.774
36.02	13.287
36.24	22.721
36.46	11.913
36.68	5.732
36.9	11.144
37.12	7.391
37.34	0.533
37.56	0.49
37.78	0.257
38	12.754
38.22	33.158
38.44	13.267
38.66	12.105
38.88	3.947
39.1	4.444
39.32	7.102
39.54	6.89
39.76	16.618
39.98	0.423
40.2	12.403
40.42	16.617
40.64	1.713
40.86	19.303
41.08	14.075
41.3	3.034
41.52	2.905
41.74	5.678
41.96	6.348
42.18	4.971
42.4	3.642
42.62	25.533
42.84	7.389
43.06	24.575
43.28	9.003
43.5	21.241
43.72	7.589
43.94	14.302
44.16	21.562
44.38	1.486
44.6	1.261
44.82	7.195
45.04	10.691
45.26	10.042
45.48	2.659
45.7	4.081
45.92	5.604
46.14	6.061
46.36	1.242
46.58	1.498
46.8	9.625
47.02	16.458
47.24	10.342
47.46	10.139
47.68	1.826
47.9	12.873
48.12	1.453
48.34	6.063
48.56	3.673
48.78	13.649
49	9.761
49.22	4.544
49.44	9.525
49.66	3.711
49.88	38.846
50.1	29.301
50.32	2.787
50.54	12.603
50.76	9.407
50.98	8.624
51.2	15.696
51.42	8.759
51.64	7.613
51.86	5.309
52.08	6.97
52.3	4.723
52.52	4.036
52.74	8.553
52.96	44.621
53.18	7.633
53.4	5.188
53.62	5.662
53.84	0.464
54.06	2.652
54.28	3.734
54.5	4.588
54.72	10.214
54.94	6.179
55.16	6.857
55.38	11.693
55.6	11.041
55.82	8.334
56.04	8.581
56.26	13.4
56.48	0.997
56.7	0.528
56.92	6.965
57.14	1.429
57.36	2.133
57.58	11.89
57.8	15.668
58.02	18.968
58.24	11.292
58.46	7.007
58.68	9.179
58.9	2.463
59.12	15.232
59.34	7.057
59.56	10.751
59.78	19.001
60	3.478
60.22	5.972
60.44	0.435
60.66	4.787
60.88	3.029
61.1	0.179
61.32	4.243
61.54	8.852
61.76	4.629
61.98	8.391
62.2	6.74
62.42	5.511
62.64	20.463
62.86	8.656
63.08	1.297
63.3	17.606
63.52	3.8
63.74	5.604
63.96	2.276
64.18	6.441
64.4	14.502
64.62	7.699
64.84	8.061
65.06	10.9
65.28	1.754
65.5	8.3
65.72	2.731
65.94	1.978
66.16	5.075
66.38	3.205
66.6	4.225
66.82	2.19
67.04	5.07
67.26	13.929
67.48	5.131
67.7	10.368
67.92	11.736
68.14	5.565
68.36	2.837
68.58	0.402
68.8	6.49
69.02	14.623
69.24	15.702
69.46	14.855
69.68	3.796
69.9	3.414
70.12	5.896
70.34	4.616
70.56	2.362
70.78	8.196
71	15.568
71.22	7.854
71.44	13.423
71.66	2.043
71.88	4.72
72.1	7.576
72.32	8.695
72.54	10.81
72.76	3.365
72.98	3.634
73.2	9.01
73.42	1.449
73.64	2.883
73.86	6.639
74.08	10.196
74.3	3.918
74.52	8.101
74.74	7.241
74.96	12.266
75.18	5.525
75.4	0.526
75.62	9.3
75.84	12.258
76.06	10.452
76.28	6.142
76.5	6.6
76.72	6.583
76.94	7.701
77.16	7.836
77.38	11.961
77.6	4.713
77.82	6.188
78.04	4.456
78.26	9.568
78.48	1.404
78.7	3.525
78.92	2.606
79.14	3.763
79.36	6.775
79.58	8.732
79.8	10.801
80.02	4.08
80.24	5.681
80.46	5.635
80.68	6.61
80.9	3.572
81.12	11.587
81.34	12.587
81.56	0.409
81.78	8.609
82	7.876
82.22	9.411
82.44	6.309
82.66	8.526
82.88	0.645
83.1	0.927
83.32	1.553
83.54	10.647
83.76	11.893
83.98	2.839
84.2	5.904
84.42	0.414
84.64	8.343
84.86	4.327
85.08	12.603
85.3	3.586
85.52	2.528
85.74	7.451
85.96	7.558
86.18	3.54
86.4	0.587
86.62	9.656
86.84	4.856
87.06	7.858
87.28	2.775
87.5	2.84
87.72	6.979
87.94	4.9
88.16	13.73
88.38	2.839
88.6	5.818
88.82	5.863
89.04	7.83
89.26	0.98
89.48	2.757
89.7	20.804
89.92	4.521
