Measurement: Powder, Xray Data XY Processed
Mineral: Stilbite-Ca
Rruff sample: R050106
Ideal chemistry: NaCa_4_(Si_27_Al_9_)O_72_28H_2_O
Locality: Corea, Sonora, Mexico
Source: Fred Devito
Description: White to colorless sheaflike aggregates of flattened single crystals
Diffraction sample description: Powder
Measured chemistry: Na_1.42_Ca_4.28_(Si_26.02_Al_9.98_)O_72_Â·27.61H_2_O; trace amounts of K; H_2_O estimated by difference
Cell parameters: a: 13.6234(9) b: 18.2421(6) c: 11.2793(6) alpha: 90. beta: 127.978(4) gamma: 90. volume: 2209.5(1) crystal system: monoclinic
x	intensity
5	0
5.22	5.113
5.44	5.919
5.66	5.756
5.88	0.922
6.1	11.227
6.32	12.956
6.54	0.777
6.76	13.373
6.98	12.95
7.2	6.6
7.42	14.703
7.64	5.182
7.86	7.873
8.08	5.66
8.3	4.881
8.52	0.019
8.74	14.698
8.96	1.877
9.18	0.467
9.4	18.297
9.62	222.896
9.84	60.371
10.06	17.334
10.28	10.189
10.5	9.161
10.72	1.52
10.94	0.482
11.16	0.015
11.38	8.694
11.6	7.561
11.82	5.003
12.04	5.807
12.26	9.021
12.48	6.353
12.7	5.172
12.92	5.357
13.14	2.461
13.36	3.103
13.58	2.328
13.8	3.38
14.02	8.285
14.24	6.396
14.46	3.281
14.68	1.394
14.9	7.095
15.12	3.247
15.34	0.321
15.56	6.349
15.78	5.248
16	2.101
16.22	14.194
16.44	7.119
16.66	23.099
16.88	6.152
17.1	1.056
17.32	10.115
17.54	2.177
17.76	5.126
17.98	0.004
18.2	1.865
18.42	6.595
18.64	5.434
18.86	8.155
19.08	72.906
19.3	24.065
19.52	51.697
19.74	18.168
19.96	26.368
20.18	3.4
20.4	4.185
20.62	10.933
20.84	54.705
21.06	2.401
21.28	13.218
21.5	9.833
21.72	18.578
21.94	793.582
22.16	29.892
22.38	16.406
22.6	3.2
22.82	2.36
23.04	9.511
23.26	3.864
23.48	26.449
23.7	14.99
23.92	0.149
24.14	19.018
24.36	5.684
24.58	5.358
24.8	7.257
25.02	12.063
25.24	10.871
25.46	18.637
25.68	44.713
25.9	10.3
26.12	40.215
26.34	46.65
26.56	26.296
26.78	0.281
27	10.165
27.22	2.322
27.44	8.257
27.66	7.925
27.88	26.446
28.1	60.807
28.32	10.263
28.54	0.461
28.76	13.631
28.98	14.671
29.2	1.357
29.42	252.489
29.64	135.181
29.86	70.474
30.08	12.834
30.3	10.385
30.52	1.04
30.74	1.69
30.96	0.546
31.18	27.558
31.4	3.929
31.62	2.711
31.84	31.106
32.06	9.531
32.28	157.461
32.5	11.461
32.72	9.165
32.94	30.225
33.16	9.825
33.38	19.84
33.6	6.815
33.82	0.416
34.04	5.237
34.26	11.084
34.48	7.73
34.7	34.398
34.92	24.304
35.14	36.104
35.36	0.301
35.58	18.16
35.8	34.346
36.02	4.368
36.24	24.218
36.46	15.293
36.68	14.831
36.9	8.341
37.12	1.083
37.34	6.265
37.56	5.99
37.78	7.376
38	6.54
38.22	26.066
38.44	16.497
38.66	8.305
38.88	4.912
39.1	25.759
39.32	8.543
39.54	5.455
39.76	13.314
39.98	6.008
40.2	16.135
40.42	15.582
40.64	33.168
40.86	9.783
41.08	6.613
41.3	8.762
41.52	6.685
41.74	2.441
41.96	16.228
42.18	7.977
42.4	3.019
42.62	38.367
42.84	12.431
43.06	34.01
43.28	2.551
43.5	5.434
43.72	5.633
43.94	17.851
44.16	21.241
44.38	13.4
44.6	28.377
44.82	16.938
45.04	6.995
45.26	1.659
45.48	6.521
45.7	8.304
45.92	10.065
46.14	4.761
46.36	3.836
46.58	10.243
46.8	4.313
47.02	5.128
47.24	6.719
47.46	2.077
47.68	2.367
47.9	27.133
48.12	3.445
48.34	9.76
48.56	34.264
48.78	6.783
49	5.85
49.22	6.647
49.44	0.608
49.66	6.567
49.88	16.496
50.1	75.555
50.32	8.436
50.54	23.89
50.76	4.005
50.98	16.719
51.2	7.446
51.42	14.955
51.64	2.596
51.86	19.111
52.08	4.44
52.3	6.025
52.52	7.784
52.74	7.159
52.96	15.161
53.18	6.412
53.4	5.04
53.62	4.009
53.84	9.968
54.06	7.795
54.28	6.065
54.5	10.865
54.72	3.926
54.94	19.596
55.16	13.599
55.38	13.004
55.6	2.774
55.82	5.126
56.04	22.121
56.26	9.068
56.48	7.841
56.7	5.366
56.92	1.941
57.14	6.517
57.36	11.125
57.58	17.983
57.8	18.494
58.02	10.261
58.24	13.998
58.46	1.943
58.68	7.038
58.9	12.328
59.12	5.795
59.34	8.486
59.56	36.166
59.78	13.986
60	11.139
60.22	0.543
60.44	3.554
60.66	6.806
60.88	15.992
61.1	9.066
61.32	4.306
61.54	11.119
61.76	10.083
61.98	9.973
62.2	5.579
62.42	5.528
62.64	4.952
62.86	0.022
63.08	2.057
63.3	2.019
63.52	9.054
63.74	1.706
63.96	4.642
64.18	6.404
64.4	5.35
64.62	4.274
64.84	15.337
65.06	2.029
65.28	3.97
65.5	0.033
65.72	0.277
65.94	1.238
66.16	12.228
66.38	4.257
66.6	6.591
66.82	13.438
67.04	11.436
67.26	8.247
67.48	5.57
67.7	4.659
67.92	5.452
68.14	17.3
68.36	5.376
68.58	9.531
68.8	2.412
69.02	22.496
69.24	15.201
69.46	13.286
69.68	14.292
69.9	8.934
70.12	2.844
70.34	4.964
70.56	2.821
70.78	4.75
71	4.486
71.22	5.319
71.44	3.827
71.66	7.03
71.88	20.906
72.1	3.02
72.32	10.068
72.54	8.941
72.76	7.166
72.98	10.892
73.2	4.022
73.42	12.499
73.64	3.807
73.86	3.48
74.08	1.238
74.3	8.884
74.52	17.87
74.74	2.853
74.96	8.799
75.18	2.229
75.4	1.872
75.62	14.768
75.84	8.445
76.06	3.422
76.28	2.912
76.5	7.904
76.72	8.884
76.94	6.837
77.16	6.836
77.38	7.884
77.6	5.791
77.82	0.891
78.04	1.17
78.26	12.337
78.48	1.384
78.7	2.641
78.92	3.672
79.14	0.025
79.36	3.462
79.58	6.594
79.8	6.612
80.02	6.423
80.24	6.412
80.46	1.454
80.68	4.615
80.9	2.663
81.12	10.629
81.34	2.661
81.56	5.658
81.78	9.69
82	1.998
82.22	3.146
82.44	8.259
82.66	2.298
82.88	7.094
83.1	3.11
83.32	6.087
83.54	4.055
83.76	6.99
83.98	11.1
84.2	9.768
84.42	9.434
84.64	0.49
84.86	9.56
85.08	1.251
85.3	5.931
85.52	2.986
85.74	3.156
85.96	1.518
86.18	6.582
86.4	4.559
86.62	5.67
86.84	3.694
87.06	2.62
87.28	5.61
87.5	9.621
87.72	6.614
87.94	5.648
88.16	8.563
88.38	0.359
88.6	2.379
88.82	0.622
89.04	2.458
89.26	3.297
89.48	8.274
89.7	3.374
89.92	5.459
