Measurement: Powder, Xray Data XY Processed
Mineral: Stillwellite-(Ce)
Rruff sample: R060899
Ideal chemistry: CeBSiO_5_
Locality: Dara-i-Pioz, Alayskiy Range, South Tien- Shan Mountains, Tajikistan
Source: Michael Scott
Description: Red or green (depending upon light source) hexagonal prism associated with aegirine and orthoclase
Diffraction sample description: Powder
Cell parameters: a: 6.8636(3) b: 6.8636(3) c: 6.7176(6) alpha: 90 beta: 90 gamma: 120 volume: 274.06(3) crystal system: hexagonal
x	intensity
5	0
5.22	7.18414
5.44	2.4753
5.66	15.447
5.88	10.9123
6.1	16.5124
6.32	7.19422
6.54	7.08655
6.76	20.8342
6.98	14.136
7.2	1.88689
7.42	2.79091
7.64	6.32354
7.86	3.68323
8.08	2.00347
8.3	6.17046
8.52	5.25204
8.74	2.95856
8.96	4.80877
9.18	5.43806
9.4	6.02151
9.62	3.70224
9.84	3.24636
10.06	4.81208
10.28	1.92724
10.5	4.40457
10.72	0.944841
10.94	4.45139
11.16	0.566613
11.38	3.94343
11.6	7.39422
11.82	5.68705
12.04	5.26083
12.26	1.48513
12.48	6.80272
12.7	6.9615
12.92	10.9284
13.14	2.8835
13.36	0.854734
13.58	0.944408
13.8	5.98488
14.02	1.78576
14.24	9.73086
14.46	1.42027
14.68	11.3047
14.9	29.168
15.12	13.0372
15.34	7.10414
15.56	1.88821
15.78	5.13662
16	9.89346
16.22	4.96863
16.44	6.90774
16.66	1.91534
16.88	2.84038
17.1	6.98381
17.32	7.955
17.54	3.88276
17.76	0.08678
17.98	4.70015
18.2	1.03069
18.42	12.9887
18.64	2.81607
18.86	0.722862
19.08	2.60509
19.3	5.48596
19.52	3.32496
19.74	6.24865
19.96	164.217
20.18	15.0068
20.4	1.96486
20.62	6.67379
20.84	16.9645
21.06	5.551
21.28	1.72109
21.5	11.8715
21.72	12.2665
21.94	7.25287
22.16	10.4326
22.38	3.40564
22.6	6.48799
22.82	7.55204
23.04	14.4863
23.26	0.120312
23.48	12.1719
23.7	4.24052
23.92	1.26877
24.14	6.78919
24.36	0.7472
24.58	5.46747
24.8	4.13193
25.02	0.789382
25.24	4.48333
25.46	7.19833
25.68	4.83521
25.9	81.2619
26.12	18.9366
26.34	8.87618
26.56	2.18549
26.78	14.0427
27	14.3574
27.22	7.46117
27.44	5.79772
27.66	0.519382
27.88	8.53533
28.1	3.52342
28.32	7.28384
28.54	4.13193
28.76	0.718226
28.98	4.30781
29.2	22.0084
29.42	0.503859
29.64	3.29437
29.86	6.10962
30.08	113.53
30.3	5.5994
30.52	88.9948
30.74	31.2575
30.96	8.67745
31.18	5.35642
31.4	5.95275
31.62	3.38482
31.84	1.79755
32.06	0.257592
32.28	0.669866
32.5	8.77998
32.72	6.0224
32.94	22.1723
33.16	2.49376
33.38	4.47771
33.6	3.37522
33.82	12.3891
34.04	6.77747
34.26	3.02109
34.48	1.98666
34.7	5.04845
34.92	14.9527
35.14	1.90002
35.36	0.843898
35.58	5.55044
35.8	7.77377
36.02	0.304663
36.24	1.69742
36.46	3.35641
36.68	11.1873
36.9	1.30804
37.12	4.3117
37.34	6.32551
37.56	22.4332
37.78	8.70129
38	5.8423
38.22	8.13173
38.44	6.16489
38.66	6.0659
38.88	4.02008
39.1	3.90492
39.32	2.32177
39.54	7.49126
39.76	9.23368
39.98	5.152
40.2	24.8413
40.42	18.5894
40.64	14.1969
40.86	8.16729
41.08	1.25122
41.3	0.137671
41.52	0.044137
41.74	0.031527
41.96	5.9156
42.18	3.86001
42.4	80.7086
42.62	23.6728
42.84	0.716739
43.06	7.56798
43.28	12.7935
43.5	0.277452
43.72	3.89045
43.94	4.31619
44.16	9.69133
44.38	5.00476
44.6	0.754954
44.82	3.48408
45.04	2.78356
45.26	2.90702
45.48	5.03661
45.7	3.24917
45.92	6.46961
46.14	2.44932
46.36	5.45945
46.58	1.224
46.8	4.90083
47.02	6.61509
47.24	2.23578
47.46	2.55054
47.68	13.1288
47.9	15.7192
48.12	6.91777
48.34	16.5833
48.56	33.3094
48.78	54.1613
49	21.2571
49.22	9.3325
49.44	6.52915
49.66	0.032291
49.88	3.64176
50.1	1.70471
50.32	5.36127
50.54	6.65816
50.76	6.91477
50.98	6.3327
51.2	8.55892
51.42	8.89784
51.64	7.11102
51.86	5.26326
52.08	0.39384
52.3	8.68878
52.52	7.72731
52.74	6.41974
52.96	5.36327
53.18	1.24101
53.4	16.0661
53.62	16.9125
53.84	7.57482
54.06	8.34996
54.28	8.89693
54.5	0.545248
54.72	5.2695
54.94	9.09297
55.16	6.052
55.38	10.2748
55.6	17.4233
55.82	25.0842
56.04	4.07312
56.26	1.25118
56.48	5.36402
56.7	10.5029
56.92	5.59073
57.14	7.76923
57.36	10.0383
57.58	6.26341
57.8	3.06951
58.02	2.20687
58.24	3.49827
58.46	3.6269
58.68	4.65195
58.9	0.278413
59.12	1.96875
59.34	1.95817
59.56	4.02103
59.78	5.78397
60	4.83628
60.22	2.954
60.44	9.90397
60.66	7.70884
60.88	5.81005
61.1	8.7126
61.32	3.65639
61.54	12.7261
61.76	3.65741
61.98	2.63275
62.2	1.70775
62.42	4.70721
62.64	4.49482
62.86	4.28031
63.08	7.12278
63.3	2.07589
63.52	12.1707
63.74	10.2135
63.96	7.29284
64.18	8.62052
64.4	1.96453
64.62	8.00604
64.84	0.066006
65.06	4.40564
65.28	3.62481
65.5	4.92327
65.72	3.04067
65.94	1.09846
66.16	7.099
66.38	4.30931
66.6	9.19665
66.82	4.00082
67.04	4.12654
67.26	2.94626
67.48	5.86531
67.7	5.67128
67.92	1.2293
68.14	1.92651
68.36	6.64811
68.58	6.31309
68.8	6.50416
69.02	12.1184
69.24	8.7288
69.46	5.26433
69.68	2.8963
69.9	9.60218
70.12	6.55755
70.34	14.9372
70.56	13.0345
70.78	1.25901
71	3.67111
71.22	3.03931
71.44	0.552471
71.66	7.95838
71.88	6.28163
72.1	3.68523
72.32	6.06239
72.54	1.6007
72.76	5.73989
72.98	3.7749
73.2	6.85135
73.42	5.65797
73.64	3.59312
73.86	0.447288
74.08	8.30869
74.3	3.26469
74.52	13.2283
74.74	8.05088
74.96	12.025
75.18	4.88181
75.4	2.95553
75.62	11.0388
75.84	7.28096
76.06	1.41759
76.28	2.7284
76.5	4.81482
76.72	7.75485
76.94	3.85056
77.16	6.98451
77.38	0.847203
77.6	2.63698
77.82	2.45231
78.04	1.25259
78.26	4.87292
78.48	6.50265
78.7	2.23448
78.92	7.07012
79.14	7.88731
79.36	5.00314
79.58	3.83073
79.8	0.680191
80.02	2.56148
80.24	5.06497
80.46	2.16051
80.68	8.35416
80.9	5.40304
81.12	2.74479
81.34	1.85508
81.56	3.95126
81.78	3.77015
82	8.80623
82.22	2.87045
82.44	2.72977
82.66	8.94501
82.88	2.08756
83.1	1.13814
83.32	2.15058
83.54	3.97913
83.76	9.02591
83.98	7.03979
84.2	4.02468
84.42	7.07852
84.64	9.38802
84.86	0.707376
85.08	2.24322
85.3	3.10006
85.52	2.07847
85.74	6.03603
85.96	2.94815
86.18	4.91298
86.4	2.05441
86.62	6.9589
86.84	18.8702
87.06	1.74044
87.28	10.4593
87.5	7.75401
87.72	7.92248
87.94	11.9049
88.16	6.22397
88.38	9.54899
88.6	1.65773
88.82	13.5584
89.04	2.93272
89.26	6.18129
89.48	0.989307
89.7	1.8426
89.92	6.70867
