Measurement: Powder, Xray Data XY Processed
Mineral: Strontianite
Rruff sample: R040037
Ideal chemistry: SrCO_3_
Locality: Alston Moor, Cumbria, England
Source: University of Arizona Mineral Museum
Description: Group of tan colored crystals
Diffraction sample description: Powder
Measured chemistry: (Sr_0.91_Ca_0.09_)_Î£=1_CO_3_; CO_2_ estimated by difference
Cell parameters: a: 5.0928(2) b: 8.3654(4) c: 6.0020(3) alpha: 90. beta: 90. gamma: 90. volume: 255.71(2) crystal system: orthorhombic
x	intensity
5	0
5.22	8.824
5.44	19.149
5.66	15.505
5.88	13.5
6.1	4.935
6.32	4.449
6.54	2.145
6.76	11.237
6.98	4.466
7.2	8.932
7.42	9.215
7.64	6.247
7.86	3.181
8.08	10.524
8.3	5.466
8.52	3.419
8.74	12.65
8.96	0.83
9.18	3.939
9.4	1.13
9.62	5.046
9.84	5.091
10.06	3.254
10.28	9.426
10.5	8.464
10.72	7.724
10.94	9.275
11.16	6.242
11.38	0.221
11.6	3.814
11.82	3.914
12.04	6.993
12.26	7.022
12.48	4.008
12.7	1.06
12.92	0.009
13.14	2.844
13.36	4.58
13.58	3.605
13.8	8.559
14.02	8.101
14.24	9.963
14.46	1.907
14.68	7.928
14.9	8.869
15.12	4.821
15.34	7.931
15.56	8.071
15.78	4.013
16	7.915
16.22	9.813
16.44	6.857
16.66	0.02
16.88	1.975
17.1	15.839
17.32	4.789
17.54	1.686
17.76	14.302
17.98	2.154
18.2	6.899
18.42	7.937
18.64	4.787
18.86	7.759
19.08	3.691
19.3	2.484
19.52	3.424
19.74	6.318
19.96	7.286
20.18	1.22
20.4	47.339
20.62	1.57
20.84	7.395
21.06	1.346
21.28	36.615
21.5	4.547
21.72	6.563
21.94	7.779
22.16	1.755
22.38	1.631
22.6	5.939
22.82	25.209
23.04	4.637
23.26	2.76
23.48	11.878
23.7	12.669
23.92	2.699
24.14	2.588
24.36	3.095
24.58	5.655
24.8	14.254
25.02	37.598
25.24	527.225
25.46	240.655
25.68	50.794
25.9	257.734
26.12	139.661
26.34	14.365
26.56	3.706
26.78	5.065
27	0.556
27.22	3.221
27.44	14.331
27.66	8.25
27.88	4.053
28.1	6.408
28.32	8.652
28.54	14.222
28.76	5.062
28.98	10.592
29.2	4.252
29.42	10.725
29.64	15.278
29.86	87.164
30.08	14.189
30.3	2.86
30.52	0.279
30.74	2.374
30.96	7.674
31.18	6.864
31.4	13.186
31.62	74.234
31.84	46.482
32.06	20.752
32.28	4.309
32.5	5.726
32.72	7.482
32.94	0.795
33.16	6.511
33.38	6.293
33.6	1.323
33.82	1.341
34.04	4.68
34.26	2.77
34.48	10.742
34.7	125.707
34.92	12.998
35.14	38.043
35.36	107.337
35.58	54.409
35.8	12.967
36.02	7.903
36.24	47.427
36.46	303.453
36.68	164.125
36.9	302.009
37.12	32.922
37.34	12.518
37.56	7.067
37.78	5.547
38	4.762
38.22	8.016
38.44	4.959
38.66	5.135
38.88	6.416
39.1	0.024
39.32	3.883
39.54	13.013
39.76	15.756
39.98	27.55
40.2	2.386
40.42	4.793
40.64	5.774
40.86	11.503
41.08	10.412
41.3	15.777
41.52	175.935
41.74	26.396
41.96	3.062
42.18	5.501
42.4	3.895
42.62	3.448
42.84	6.674
43.06	7.896
43.28	17.174
43.5	1.383
43.72	3.028
43.94	16.156
44.16	84.643
44.38	301.815
44.6	32.787
44.82	9.296
45.04	6.707
45.26	0.464
45.48	5.789
45.7	16.779
45.92	109.398
46.14	74.542
46.36	6.408
46.58	18.545
46.8	142.846
47.02	34.573
47.24	12.965
47.46	0.714
47.68	12.381
47.9	140.818
48.12	167.099
48.34	12.407
48.56	2.455
48.78	1.85
49	5.347
49.22	6.679
49.44	9.847
49.66	3.904
49.88	13.646
50.1	138.626
50.32	193.235
50.54	111.037
50.76	50.102
50.98	32.483
51.2	7.099
51.42	12.626
51.64	5.898
51.86	24.684
52.08	14.522
52.3	8.24
52.52	5.683
52.74	2.967
52.96	10.15
53.18	17.016
53.4	18.585
53.62	14.88
53.84	10.184
54.06	5.784
54.28	3.883
54.5	6.087
54.72	11.429
54.94	2.869
55.16	17.851
55.38	13.717
55.6	6.574
55.82	2.351
56.04	6.973
56.26	0.666
56.48	6.387
56.7	7.187
56.92	13.702
57.14	20.956
57.36	19.694
57.58	48.323
57.8	9.922
58.02	21.304
58.24	12.032
58.46	4.843
58.68	1.264
58.9	17.449
59.12	57.075
59.34	39.981
59.56	7.191
59.78	2.419
60	10.426
60.22	55.502
60.44	32.347
60.66	2.85
60.88	4.258
61.1	1.484
61.32	0.241
61.54	7.828
61.76	12.152
61.98	10.164
62.2	7.295
62.42	7.145
62.64	7.025
62.86	6.582
63.08	33.309
63.3	9.094
63.52	3.964
63.74	3.577
63.96	16.51
64.18	49.322
64.4	18.133
64.62	8.803
64.84	3.664
65.06	0.786
65.28	14.385
65.5	14.03
65.72	33.762
65.94	33.599
66.16	31.656
66.38	10.438
66.6	45.897
66.82	29.492
67.04	8.71
67.26	8.723
67.48	9.696
67.7	0.607
67.92	1.624
68.14	7.428
68.36	5.26
68.58	5.706
68.8	11.12
69.02	1.822
69.24	3.347
69.46	2.217
69.68	4.647
69.9	0.54
70.12	2.628
70.34	0.391
70.56	7.329
70.78	2.575
71	8.093
71.22	3.66
71.44	0.575
71.66	6.724
71.88	4.21
72.1	9.957
72.32	48.64
72.54	25.817
72.76	1.285
72.98	7.534
73.2	30.487
73.42	10.109
73.64	1.285
73.86	11.397
74.08	69.267
74.3	41.315
74.52	21.959
74.74	4.854
74.96	11.986
75.18	13.505
75.4	18.132
75.62	34.988
75.84	20.156
76.06	2.01
76.28	7.021
76.5	5.694
76.72	8.891
76.94	1.088
77.16	10.243
77.38	5.682
77.6	0.197
77.82	5.063
78.04	17.94
78.26	17.576
78.48	19.149
78.7	8.973
78.92	2.026
79.14	1.38
79.36	3.658
79.58	4.865
79.8	2.049
80.02	6.355
80.24	10.69
80.46	15.727
80.68	11.855
80.9	17.657
81.12	8.107
81.34	2.277
81.56	9.337
81.78	4.193
82	3.767
82.22	18.323
82.44	22.56
82.66	14.087
82.88	14.207
83.1	8.712
83.32	3.837
83.54	22.872
83.76	11.899
83.98	10.217
84.2	5.22
84.42	10.378
84.64	3.523
84.86	10.731
85.08	5.99
85.3	1.125
85.52	3.005
85.74	15.097
85.96	13.725
86.18	16.374
86.4	9.379
86.62	8.456
86.84	1.647
87.06	4.933
87.28	5.989
87.5	13.027
87.72	7.065
87.94	1.776
88.16	0.623
88.38	5.368
88.6	0.295
88.82	5.475
89.04	2.655
89.26	9.891
89.48	1.506
89.7	6.508
89.92	15.699
