Measurement: Powder, Xray Data XY Processed
Mineral: Strontianite
Rruff sample: R050476
Ideal chemistry: SrCO_3_
Locality: Fidalgo Island, Puget Sound, Washington, USA
Source: California Institute of Technology
Description: Aggregate of colorless spheres
Diffraction sample description: Powder
Measured chemistry: (Sr_0.86_Ca_0.14_)CO_3_
Cell parameters: a: 5.0803(5) b: 8.362(1) c: 5.9863(7) alpha: 90 beta: 90 gamma: 90 volume: 254.32(3) crystal system: orthorhombic
x	intensity
5	0
5.22	6.14145
5.44	20.1529
5.66	5.14211
5.88	6.96177
6.1	7.90457
6.32	8.01842
6.54	5.7005
6.76	4.30234
6.98	10.5809
7.2	6.32256
7.42	11.1669
7.64	8.7937
7.86	7.6375
8.08	3.58385
8.3	4.93476
8.52	3.25946
8.74	6.50682
8.96	2.29441
9.18	3.70741
9.4	1.76932
9.62	5.87551
9.84	9.81869
10.06	7.05411
10.28	3.69474
10.5	5.86905
10.72	4.09661
10.94	3.25701
11.16	3.41567
11.38	3.67977
11.6	7.98082
11.82	1.22724
12.04	0.398679
12.26	4.56767
12.48	2.64773
12.7	2.79168
12.92	5.87328
13.14	9.95235
13.36	1.86756
13.58	3.91988
13.8	2.08658
14.02	6.13048
14.24	0.946647
14.46	4.8627
14.68	6.70192
14.9	1.52615
15.12	2.33432
15.34	4.17786
15.56	4.94095
15.78	9.79875
16	4.8856
16.22	0.273529
16.44	2.50062
16.66	3.56
16.88	2.5663
17.1	3.64096
17.32	4.80821
17.54	11.0446
17.76	11.1068
17.98	3.09914
18.2	9.07679
18.42	7.87031
18.64	2.84876
18.86	7.91268
19.08	3.83332
19.3	3.62658
19.52	5.56261
19.74	0.772035
19.96	3.98495
20.18	4.84259
20.4	15.799
20.62	5.7555
20.84	3.19912
21.06	10.1089
21.28	7.15973
21.5	7.28953
21.72	3.37139
21.94	3.39256
22.16	0.501489
22.38	4.68096
22.6	1.91912
22.82	11.9198
23.04	11.2527
23.26	12.6167
23.48	4.1623
23.7	9.46443
23.92	1.54541
24.14	2.28135
24.36	0.192486
24.58	3.85264
24.8	13.8558
25.02	15.8401
25.24	232.933
25.46	238.401
25.68	56.3484
25.9	170.664
26.12	123.894
26.34	11.4959
26.56	1.076
26.78	1.33513
27	6.07019
27.22	11.9286
27.44	7.49753
27.66	7.96744
27.88	4.1209
28.1	6.82039
28.32	9.72045
28.54	4.78385
28.76	6.62319
28.98	2.48075
29.2	15.0754
29.42	0.99895
29.64	7.95724
29.86	57.6089
30.08	10.6387
30.3	0.487012
30.52	4.51392
30.74	4.49103
30.96	1.49439
31.18	0.546464
31.4	11.4838
31.62	34.4318
31.84	51.4235
32.06	14.2683
32.28	8.10473
32.5	1.11802
32.72	5.39357
32.94	0.795987
33.16	1.46283
33.38	11.3754
33.6	11.8058
33.82	6.26687
34.04	0.377927
34.26	9.32954
34.48	5.14281
34.7	23.6651
34.92	10.7568
35.14	6.46092
35.36	45.5305
35.58	8.6577
35.8	0.068949
36.02	7.00958
36.24	20.1751
36.46	114.07
36.68	116.119
36.9	121.69
37.12	27.3118
37.34	6.33536
37.56	5.80745
37.78	1.22913
38	3.49487
38.22	0.478225
38.44	3.25081
38.66	7.80509
38.88	1.69494
39.1	8.5637
39.32	7.71398
39.54	4.40057
39.76	8.4378
39.98	13.4512
40.2	6.14949
40.42	2.88817
40.64	6.69904
40.86	4.53885
41.08	7.66449
41.3	6.56468
41.52	34.588
41.74	34.499
41.96	13.8529
42.18	2.39911
42.4	3.79626
42.62	6.20568
42.84	3.63039
43.06	0.068453
43.28	6.54233
43.5	12.6553
43.72	6.01586
43.94	9.86683
44.16	28.7367
44.38	156.603
44.6	52.1779
44.82	3.7836
45.04	0.460492
45.26	4.14809
45.48	8.19312
45.7	12.8623
45.92	47.5984
46.14	29.4155
46.36	8.72907
46.58	1.53155
46.8	34.3571
47.02	37.6391
47.24	3.03581
47.46	2.99519
47.68	9.31846
47.9	54.6432
48.12	71.8423
48.34	24.7183
48.56	0.60272
48.78	6.47805
49	1.77981
49.22	4.05195
49.44	2.2004
49.66	4.25231
49.88	8.76951
50.1	44.2686
50.32	77.5577
50.54	45.3161
50.76	19.1666
50.98	26.2362
51.2	15.4759
51.42	3.8797
51.64	2.50753
51.86	5.0517
52.08	12.6348
52.3	3.97625
52.52	5.28569
52.74	0.253118
52.96	7.59136
53.18	5.22927
53.4	1.55668
53.62	3.94496
53.84	8.10469
54.06	4.32957
54.28	4.58053
54.5	4.33951
54.72	5.5058
54.94	4.62109
55.16	12.0958
55.38	8.29145
55.6	9.80291
55.82	9.64485
56.04	0.707223
56.26	7.73809
56.48	2.41426
56.7	7.00422
56.92	5.64834
57.14	6.72411
57.36	4.32987
57.58	23.804
57.8	22.493
58.02	3.23378
58.24	2.99159
58.46	1.20741
58.68	6.5957
58.9	5.49493
59.12	13.3641
59.34	19.3313
59.56	12.869
59.78	11.7487
60	11.8755
60.22	6.03561
60.44	11.7724
60.66	0.230639
60.88	3.54676
61.1	0.730938
61.32	3.66842
61.54	5.14026
61.76	10.386
61.98	3.5679
62.2	4.69345
62.42	6.74846
62.64	1.7513
62.86	10.2159
63.08	9.1325
63.3	10.0469
63.52	3.54603
63.74	2.41894
63.96	5.32642
64.18	19.761
64.4	11.7976
64.62	6.47921
64.84	3.36677
65.06	8.89171
65.28	2.7148
65.5	4.57423
65.72	10.4368
65.94	6.36424
66.16	9.09722
66.38	6.23227
66.6	7.81808
66.82	6.316
67.04	5.68162
67.26	2.04391
67.48	0.488361
67.7	5.19773
67.92	0.592925
68.14	4.9907
68.36	7.33969
68.58	8.66549
68.8	3.67225
69.02	3.83701
69.24	12.7004
69.46	4.87923
69.68	3.04465
69.9	6.12738
70.12	3.15454
70.34	2.24386
70.56	7.20917
70.78	3.09448
71	2.90788
71.22	8.79205
71.44	4.40351
71.66	1.87663
71.88	7.29627
72.1	3.97707
72.32	13.2431
72.54	12.192
72.76	11.7331
72.98	6.9897
73.2	1.38959
73.42	12.767
73.64	7.06875
73.86	4.68648
74.08	8.68646
74.3	24.4173
74.52	20.0515
74.74	13.9818
74.96	9.08738
75.18	4.12036
75.4	4.49508
75.62	10.7326
75.84	15.0609
76.06	5.02365
76.28	0.52968
76.5	12.6966
76.72	5.97417
76.94	2.50037
77.16	0.001133
77.38	8.19277
77.6	5.97693
77.82	2.44914
78.04	0.11994
78.26	8.22865
78.48	7.40255
78.7	4.62458
78.92	0.9872
79.14	5.36152
79.36	7.46557
79.58	6.53388
79.8	0.562426
80.02	0.14967
80.24	8.15621
80.46	4.1706
80.68	9.97687
80.9	5.63625
81.12	5.48222
81.34	9.14316
81.56	3.74792
81.78	1.5373
82	9.48187
82.22	8.60549
82.44	6.51818
82.66	10.0402
82.88	11.9215
83.1	8.17652
83.32	8.50044
83.54	8.52269
83.76	8.58351
83.98	17.7242
84.2	3.23441
84.42	0.800004
84.64	2.64485
84.86	8.67886
85.08	4.90032
85.3	4.99533
85.52	11.679
85.74	7.83192
85.96	6.90883
86.18	4.07931
86.4	6.21623
86.62	5.57457
86.84	4.75234
87.06	2.10179
87.28	0.305928
87.5	1.55067
87.72	7.69552
87.94	6.82295
88.16	5.66112
88.38	8.75569
88.6	0.138514
88.82	7.00609
89.04	8.87401
89.26	0.011079
89.48	3.82583
89.7	3.03189
89.92	0.261802
