Measurement: Powder, Xray Data XY Processed
Mineral: Sugilite
Rruff sample: R070623
Ideal chemistry: KNa_2_Fe^3+^_2_(Li_3_Si_12_)O_30_
Locality: Wessels mine, Kuruman, Kalahari Manganese Field, South Africa
Source: Shinichi Kihara
Description: Bright purple fragment
Diffraction sample description: Powder
Cell parameters: a: 10.0535(3) b: 10.0535(3) c: 14.0770(7) alpha: 90 beta: 90 gamma: 120 volume: 1232.17(7) crystal system: hexagonal
x	intensity
5	0
5.22	12.0439
5.44	7.10413
5.66	10.6596
5.88	22.6224
6.1	11.1241
6.32	5.36097
6.54	12.5144
6.76	6.03532
6.98	31.7981
7.2	1.09786
7.42	8.98113
7.64	9.20144
7.86	11.0523
8.08	22.0684
8.3	22.5664
8.52	29.4073
8.74	2.7518
8.96	4.65292
9.18	22.4528
9.4	11.7513
9.62	14.4111
9.84	13.2864
10.06	24.3308
10.28	17.2332
10.5	0.271576
10.72	4.93425
10.94	19.9362
11.16	11.9736
11.38	10.0338
11.6	14.7374
11.82	15.6342
12.04	11.0764
12.26	15.8806
12.48	71.2147
12.7	14.3744
12.92	13.0246
13.14	13.5963
13.36	11.4494
13.58	8.65185
13.8	24.1325
14.02	4.67212
14.24	15.6736
14.46	14.645
14.68	23.3002
14.9	13.6427
15.12	10.9364
15.34	14.9745
15.56	14.6101
15.78	5.83445
16	32.5637
16.22	27.9955
16.44	11.6793
16.66	6.03757
16.88	21.7998
17.1	18.1984
17.32	23.415
17.54	20.6997
17.76	31.755
17.98	23.527
18.2	16.9649
18.42	21.7421
18.64	7.07736
18.86	6.06876
19.08	1.1318
19.3	14.6317
19.52	12.3
19.74	7.99188
19.96	0.662563
20.18	28.9506
20.4	254.251
20.62	1.72197
20.84	18.1843
21.06	13.0022
21.28	9.85043
21.5	35.2846
21.72	158.932
21.94	11.6912
22.16	23.4148
22.38	0.371052
22.6	8.65897
22.82	5.94758
23.04	20.2387
23.26	18.1015
23.48	13.2864
23.7	8.89602
23.92	31.2873
24.14	0.903023
24.36	21.1564
24.58	24.3142
24.8	8.38801
25.02	9.34385
25.24	105.011
25.46	13.7373
25.68	14.3799
25.9	10.9573
26.12	1.05882
26.34	18.2039
26.56	18.5593
26.78	14.6289
27	33.1384
27.22	52.1854
27.44	3.57712
27.66	61.6974
27.88	144.925
28.1	20.1094
28.32	16.2977
28.54	4.19923
28.76	9.4896
28.98	12.8638
29.2	27.0357
29.42	5.59884
29.64	19.1284
29.86	13.4439
30.08	2.6682
30.3	0.832912
30.52	24.0361
30.74	75.0279
30.96	361.591
31.18	28.8878
31.4	3.37163
31.62	12.9628
31.84	19.3992
32.06	15.5853
32.28	20.9217
32.5	16.2601
32.72	58.7715
32.94	23.3095
33.16	52.9956
33.38	32.1396
33.6	19.758
33.82	2.5337
34.04	3.95268
34.26	7.70459
34.48	26.5728
34.7	10.7414
34.92	20.71
35.14	14.9791
35.36	3.44116
35.58	55.6754
35.8	36.6249
36.02	14.0339
36.24	18.8497
36.46	12.6921
36.68	4.56354
36.9	9.6561
37.12	13.1145
37.34	11.0152
37.56	3.43189
37.78	24.7305
38	4.42669
38.22	13.8969
38.44	20.864
38.66	7.81976
38.88	15.0402
39.1	4.04657
39.32	1.25627
39.54	6.96101
39.76	15.6703
39.98	12.5342
40.2	49.5231
40.42	23.5632
40.64	16.178
40.86	14.7121
41.08	21.8934
41.3	18.9581
41.52	0.331757
41.74	7.69461
41.96	26.9112
42.18	5.72611
42.4	21.1203
42.62	21.5432
42.84	18.4138
43.06	2.79881
43.28	14.1032
43.5	24.315
43.72	10.2622
43.94	20.6274
44.16	22.6911
44.38	11.7933
44.6	22.9278
44.82	21.3813
45.04	8.952
45.26	15.5215
45.48	61.5617
45.7	16.8355
45.92	0.355133
46.14	11.6799
46.36	5.83196
46.58	11.7539
46.8	9.84069
47.02	9.12279
47.24	15.6705
47.46	7.61211
47.68	10.406
47.9	46.0413
48.12	25.4665
48.34	28.9456
48.56	17.8789
48.78	0.647358
49	13.7123
49.22	2.86955
49.44	10.251
49.66	48.6185
49.88	34.2271
50.1	8.24879
50.32	5.89036
50.54	10.5408
50.76	14.4203
50.98	1.69909
51.2	1.2024
51.42	6.63384
51.64	27.3715
51.86	29.4877
52.08	28.5122
52.3	15.8227
52.52	19.9276
52.74	11.7994
52.96	1.22059
53.18	9.99552
53.4	40.934
53.62	18.544
53.84	12.2347
54.06	19.571
54.28	7.26195
54.5	13.973
54.72	26.7739
54.94	41.7183
55.16	7.35047
55.38	12.32
55.6	3.10632
55.82	18.709
56.04	0.760902
56.26	18.8146
56.48	2.64738
56.7	5.67924
56.92	4.8583
57.14	17.9021
57.36	10.9049
57.58	6.12828
57.8	5.81057
58.02	6.85059
58.24	5.96608
58.46	11.1713
58.68	26.3468
58.9	5.88567
59.12	3.80106
59.34	18.8623
59.56	31.2005
59.78	23.9288
60	11.5619
60.22	7.8973
60.44	6.92837
60.66	3.94733
60.88	17.1254
61.1	35.2243
61.32	42.1146
61.54	31.4199
61.76	1.92054
61.98	6.21306
62.2	7.88271
62.42	1.67914
62.64	18.234
62.86	0.970459
63.08	7.30951
63.3	8.67825
63.52	8.56199
63.74	7.54512
63.96	14.2705
64.18	4.79728
64.4	5.88005
64.62	36.4949
64.84	15.5433
65.06	20.9032
65.28	8.78595
65.5	18.6805
65.72	23.7445
65.94	7.69602
66.16	17.6398
66.38	13.6735
66.6	2.14128
66.82	22.255
67.04	38.3495
67.26	16.0532
67.48	26.1731
67.7	19.307
67.92	8.83976
68.14	7.48894
68.36	26.8749
68.58	28.7996
68.8	5.10346
69.02	4.83312
69.24	9.19958
69.46	15.0063
69.68	4.82094
69.9	17.4763
70.12	27.8634
70.34	13.7057
70.56	31.7731
70.78	9.13047
71	18.9102
71.22	9.85125
71.44	21.6641
71.66	17.1283
71.88	11.6764
72.1	17.0701
72.32	9.15104
72.54	5.01793
72.76	0.944328
72.98	13.2064
73.2	19.543
73.42	17.8271
73.64	14.0434
73.86	1.18755
74.08	19.5217
74.3	9.17384
74.52	25.4774
74.74	8.63172
74.96	7.39474
75.18	5.6002
75.4	7.9768
75.62	20.3189
75.84	9.64702
76.06	16.4302
76.28	10.1692
76.5	30.2588
76.72	7.32687
76.94	5.18497
77.16	6.03757
77.38	2.03232
77.6	10.5145
77.82	8.69378
78.04	1.98348
78.26	7.10017
78.48	7.41862
78.7	3.69985
78.92	4.75989
79.14	19.7414
79.36	9.48785
79.58	31.1722
79.8	22.848
80.02	10.8865
80.24	15.4719
80.46	9.7675
80.68	8.03488
80.9	12.4267
81.12	17.1147
81.34	17.2557
81.56	8.97126
81.78	0.108486
82	22.1423
82.22	12.4504
82.44	18.445
82.66	6.87085
82.88	0.554462
83.1	15.9581
83.32	19.2453
83.54	1.256
83.76	9.98367
83.98	1.19743
84.2	26.5728
84.42	14.8436
84.64	12.5538
84.86	16.7996
85.08	12.5626
85.3	4.63408
85.52	3.86054
85.74	12.6026
85.96	10.6711
86.18	4.78439
86.4	15.4718
86.62	11.0438
86.84	26.1049
87.06	4.40015
87.28	26.2018
87.5	19.0176
87.72	15.905
87.94	17.7093
88.16	28.216
88.38	11.2055
88.6	1.86623
88.82	10.4419
89.04	15.238
89.26	36.5479
89.48	25.2173
89.7	8.89429
89.92	12.107
