Measurement: Powder, Xray Data XY Processed
Mineral: Sulphohalite
Rruff sample: R050479
Ideal chemistry: Na_6_(S^6+^O_4_)_2_ClF
Locality: Searles Lake, Trona, San Bernardino County, California, USA
Source: California Institute of Technology
Description: A pair of colorless octahedra
Diffraction sample description: Powder
Measured chemistry: Na_6.00_(S_1.00_O_4_)_2_F_1.00_Cl_1.00_
Cell parameters: a: 10.0718(1) b: 10.0718(1) c: 10.0718(1) alpha: 90. beta: 90. gamma: 90. volume: 1021.70(4) crystal system: cubic
x	intensity
5	0
5.22	8.27837
5.44	19.7272
5.66	12.1713
5.88	7.65687
6.1	12.1293
6.32	3.75684
6.54	22.8194
6.76	14.3555
6.98	11.2641
7.2	6.17388
7.42	6.1464
7.64	0.200055
7.86	8.94541
8.08	12.9001
8.3	5.59004
8.52	1.18693
8.74	1.74685
8.96	10.7318
9.18	2.0129
9.4	5.45114
9.62	0.508974
9.84	9.4776
10.06	3.14569
10.28	4.12881
10.5	8.95226
10.72	8.04152
10.94	11.0246
11.16	2.53584
11.38	0.200933
11.6	3.64188
11.82	8.28333
12.04	10.6373
12.26	4.87603
12.48	1.97775
12.7	15.3214
12.92	4.42725
13.14	7.49411
13.36	6.58045
13.58	8.18568
13.8	8.18215
14.02	6.14231
14.24	5.64246
14.46	1.49355
14.68	6.59923
14.9	15.793
15.12	7.86207
15.34	55.1954
15.56	8.22983
15.78	10.103
16	0.107295
16.22	3.05966
16.44	7.01789
16.66	4.93944
16.88	1.86756
17.1	8.56458
17.32	2.35711
17.54	6.42732
17.76	19.1752
17.98	8.27135
18.2	8.5923
18.42	3.62404
18.64	1.07371
18.86	3.25919
19.08	0.583306
19.3	5.76939
19.52	5.91788
19.74	4.81559
19.96	2.06378
20.18	6.13639
20.4	3.09775
20.62	6.87013
20.84	1.86092
21.06	2.57771
21.28	2.80423
21.5	4.67413
21.72	10.942
21.94	17.0668
22.16	1.46791
22.38	3.16286
22.6	18.2797
22.82	2.17732
23.04	9.93571
23.26	7.60829
23.48	1.19729
23.7	4.58376
23.92	0.840373
24.14	10.4626
24.36	54.955
24.58	7.25845
24.8	24.2921
25.02	457.998
25.24	58.2504
25.46	11.4692
25.68	3.7717
25.9	1.51707
26.12	0.003796
26.34	3.47648
26.56	3.87566
26.78	5.17053
27	1.48937
27.22	2.83831
27.44	6.59732
27.66	4.74049
27.88	5.52218
28.1	4.17374
28.32	0.612379
28.54	2.5665
28.76	10.2566
28.98	10.3704
29.2	5.55384
29.42	143.789
29.64	28.6288
29.86	5.90113
30.08	4.90336
30.3	6.2652
30.52	102.844
30.74	227.628
30.96	67.7671
31.18	6.71807
31.4	21.3207
31.62	81.5341
31.84	17.6583
32.06	1.24416
32.28	3.10076
32.5	14.0542
32.72	5.01339
32.94	2.84071
33.16	5.46273
33.38	5.08218
33.6	6.69187
33.82	4.99013
34.04	8.37559
34.26	1.84699
34.48	4.33496
34.7	5.60171
34.92	4.21806
35.14	3.91113
35.36	3.76794
35.58	60.5558
35.8	159.048
36.02	9.82906
36.24	8.90947
36.46	0.323023
36.68	2.56301
36.9	43.9626
37.12	6.52237
37.34	0.739013
37.56	3.39302
37.78	3.73247
38	0.979549
38.22	0.278818
38.44	9.32515
38.66	32.3961
38.88	4.09215
39.1	9.06503
39.32	4.85777
39.54	4.30545
39.76	5.18007
39.98	28.3578
40.2	46.4036
40.42	10.4596
40.64	7.45624
40.86	8.65846
41.08	1.68277
41.3	1.89187
41.52	1.01024
41.74	8.58127
41.96	0.078988
42.18	6.78955
42.4	0.784802
42.62	2.61961
42.84	2.48783
43.06	0.281016
43.28	1.86095
43.5	5.58956
43.72	4.24957
43.94	10.3985
44.16	42.6935
44.38	52.2174
44.6	11.0502
44.82	2.15911
45.04	0.913808
45.26	1.11125
45.48	3.98238
45.7	5.90521
45.92	5.84912
46.14	4.73195
46.36	7.35434
46.58	3.42926
46.8	42.4256
47.02	127.445
47.24	6.36142
47.46	0.5394
47.68	4.61769
47.9	9.10777
48.12	3.25769
48.34	8.41363
48.56	0.570697
48.78	0.606714
49	2.73736
49.22	14.0056
49.44	3.01898
49.66	3.58046
49.88	12.3454
50.1	9.09593
50.32	6.63133
50.54	5.50021
50.76	9.38349
50.98	8.34134
51.2	55.5901
51.42	184.867
51.64	30.678
51.86	11.9738
52.08	3.46602
52.3	8.92384
52.52	1.44389
52.74	3.67334
52.96	1.01738
53.18	8.52526
53.4	2.6277
53.62	0.268426
53.84	7.17197
54.06	7.08812
54.28	6.89461
54.5	5.34115
54.72	27.1747
54.94	13.8518
55.16	3.80328
55.38	5.81471
55.6	11.5523
55.82	2.78148
56.04	9.17228
56.26	8.42986
56.48	0.795363
56.7	11.1028
56.92	1.4341
57.14	1.9796
57.36	7.20817
57.58	7.52877
57.8	5.81593
58.02	3.95798
58.24	3.00181
58.46	0.940005
58.68	4.91251
58.9	2.69576
59.12	0.581262
59.34	3.47732
59.56	2.31155
59.78	3.19436
60	3.90423
60.22	6.68301
60.44	2.49254
60.66	1.37733
60.88	1.79567
61.1	25.7044
61.32	11.796
61.54	2.08028
61.76	2.41627
61.98	2.43494
62.2	5.46449
62.42	1.51094
62.64	1.5631
62.86	0.548495
63.08	3.26146
63.3	7.11813
63.52	3.14603
63.74	1.31476
63.96	19.1294
64.18	33.9336
64.4	9.87259
64.62	4.0484
64.84	4.02734
65.06	3.99425
65.28	0.010978
65.5	4.01256
65.72	9.96942
65.94	6.06492
66.16	11.9537
66.38	12.0616
66.6	5.31851
66.82	6.20231
67.04	0.396324
67.26	1.59415
67.48	6.7463
67.7	2.13586
67.92	5.16714
68.14	0.685534
68.36	8.09958
68.58	6.01426
68.8	9.83627
69.02	8.44179
69.24	2.35774
69.46	3.16225
69.68	6.98198
69.9	80.9476
70.12	52.9635
70.34	4.93122
70.56	1.04733
70.78	2.14179
71	0.752267
71.22	5.35972
71.44	2.46209
71.66	4.51621
71.88	3.83481
72.1	26.0858
72.32	17.1172
72.54	5.10355
72.76	2.01414
72.98	1.98283
73.2	5.04132
73.42	4.02856
73.64	2.15527
73.86	5.2929
74.08	4.2071
74.3	5.79277
74.52	1.79208
74.74	1.67131
74.96	0.783401
75.18	7.88909
75.4	0.039256
75.62	10.0869
75.84	8.33758
76.06	5.24449
76.28	2.43524
76.5	4.47007
76.72	5.5028
76.94	2.52467
77.16	3.50774
77.38	5.38213
77.6	10.1911
77.82	9.23906
78.04	5.25184
78.26	10.9616
78.48	6.93027
78.7	0.110958
78.92	0.942114
79.14	0.051093
79.36	0.020984
79.58	6.00827
79.8	1.02045
80.02	2.89596
80.24	2.90179
80.46	1.83279
80.68	0.884578
80.9	14.1218
81.12	16.9881
81.34	9.2877
81.56	5.13995
81.78	0.130071
82	3.25
82.22	9.20387
82.44	4.14724
82.66	6.06849
82.88	5.87313
83.1	1.68931
83.32	4.4914
83.54	11.6061
83.76	13.4272
83.98	16.4399
84.2	9.56826
84.42	5.56022
84.64	1.85135
84.86	0.880985
85.08	2.87092
85.3	0.865261
85.52	1.85434
85.74	4.72538
85.96	5.54547
86.18	9.28367
86.4	49.4506
86.62	25.4154
86.84	13.5112
87.06	13.3065
87.28	3.31182
87.5	9.36965
87.72	0.408163
87.94	0.583171
88.16	2.54397
88.38	9.57059
88.6	7.6065
88.82	2.3796
89.04	4.99716
89.26	4.00959
89.48	0.029137
89.7	2.82239
89.92	6.80767
