Measurement: Powder, Xray Data XY Processed
Mineral: Suolunite
Rruff sample: R060917
Ideal chemistry: Ca_2_Si_2_O_5_(OH)_2_H_2_O
Locality: Lac d'Amiante mine, Black Lake, Quebec, Canada
Source: Royal Ontario Museum
Description: Large white to pale lavender fragment
Diffraction sample description: Powder
Measured chemistry: Ca_2.00_Si_2.00_O_5_(OH)_2_Â·1.8H_2_O; H_2_O estimated by difference
Cell parameters: a: 19.8205(4) b: 6.0034(1) c: 11.1501(2) alpha: 90 beta: 90 gamma: 90 volume: 1326.76(3) crystal system: orthorhombic
x	intensity
5	0
5.22	8.56373
5.44	3.54017
5.66	9.77998
5.88	2.83301
6.1	1.95836
6.32	7.14896
6.54	3.27404
6.76	10.4268
6.98	7.38428
7.2	2.40233
7.42	5.88806
7.64	8.33278
7.86	12.7666
8.08	11.989
8.3	5.43783
8.52	6.67537
8.74	1.13155
8.96	4.57737
9.18	6.95299
9.4	5.18981
9.62	1.50603
9.84	5.61139
10.06	3.71613
10.28	4.85276
10.5	3.03439
10.72	6.09703
10.94	1.39174
11.16	8.61189
11.38	0.89973
11.6	4.99144
11.82	3.18427
12.04	0.315033
12.26	6.58406
12.48	2.62686
12.7	5.73262
12.92	5.81664
13.14	5.89872
13.36	3.91921
13.58	1.83122
13.8	2.89482
14.02	1.05715
14.24	4.02315
14.46	4.10447
14.68	1.97577
14.9	2.12026
15.12	3.20858
15.34	6.22078
15.56	3.34164
15.78	3.31671
16	0.333277
16.22	0.026202
16.44	0.937282
16.66	3.78905
16.88	7.64295
17.1	3.52981
17.32	18.3827
17.54	5.38742
17.76	4.40834
17.98	26.4798
18.2	0.525383
18.42	4.58878
18.64	5.72812
18.86	5.80138
19.08	4.87857
19.3	5.08829
19.52	3.14426
19.74	0.945542
19.96	5.05765
20.18	0.016456
20.4	1.29244
20.62	7.56225
20.84	5.452
21.06	4.32224
21.28	1.39118
21.5	81.3966
21.72	15.3339
21.94	4.44331
22.16	3.58288
22.38	0.36959
22.6	3.72011
22.82	4.78726
23.04	5.84272
23.26	5.88907
23.48	5.97551
23.7	4.95136
23.92	1.95964
24.14	8.79978
24.36	6.77293
24.58	2.66842
24.8	1.50848
25.02	0.506608
25.24	2.85755
25.46	3.83476
25.68	3.83437
25.9	5.77151
26.12	3.78248
26.34	3.82531
26.56	1.67173
26.78	2.51248
27	8.34621
27.22	5.17446
27.44	2.96514
27.66	3.7321
27.88	5.59834
28.1	58.547
28.32	18.507
28.54	1.24596
28.76	5.32303
28.98	2.53547
29.2	6.58737
29.42	3.56469
29.64	6.54441
29.86	4.5425
30.08	2.14675
30.3	3.00328
30.52	4.81804
30.74	4.62046
30.96	7.66088
31.18	15.6871
31.4	240.721
31.62	6.68968
31.84	2.80763
32.06	3.08815
32.28	6.87065
32.5	6.94127
32.72	10.9832
32.94	0.970696
33.16	3.01679
33.38	70.2625
33.6	18.3054
33.82	3.87911
34.04	48.6679
34.26	3.26644
34.48	6.29435
34.7	3.24428
34.92	5.04277
35.14	102.89
35.36	5.8111
35.58	0.735978
35.8	2.22192
36.02	55.0385
36.24	20.1317
36.46	16.663
36.68	0.168675
36.9	0.362343
37.12	35.6339
37.34	4.89678
37.56	5.13288
37.78	3.31388
38	2.36927
38.22	4.52382
38.44	1.67536
38.66	14.6052
38.88	0.58002
39.1	6.16855
39.32	4.14909
39.54	0.991382
39.76	8.0398
39.98	3.0824
40.2	10.6283
40.42	6.71766
40.64	62.6849
40.86	11.7177
41.08	6.75057
41.3	1.35892
41.52	8.49521
41.74	3.44388
41.96	7.27079
42.18	3.18842
42.4	7.94856
42.62	4.2293
42.84	22.9341
43.06	4.77476
43.28	0.481912
43.5	5.17968
43.72	2.40831
43.94	11.5318
44.16	9.5571
44.38	2.49702
44.6	18.6092
44.82	3.785
45.04	8.00096
45.26	12.1524
45.48	36.6696
45.7	5.83774
45.92	4.23687
46.14	6.13983
46.36	2.1238
46.58	5.38044
46.8	3.59519
47.02	0.397078
47.24	4.52716
47.46	4.44712
47.68	3.4193
47.9	2.07574
48.12	10.9793
48.34	55.6772
48.56	6.53124
48.78	5.57067
49	1.67605
49.22	54.6397
49.44	24.7146
49.66	5.9982
49.88	12.185
50.1	8.5503
50.32	4.57981
50.54	7.7205
50.76	3.87565
50.98	1.99874
51.2	0.089664
51.42	4.88421
51.64	12.0498
51.86	16.1107
52.08	4.1029
52.3	3.01727
52.52	2.81487
52.74	4.76576
52.96	2.73
53.18	2.7882
53.4	0.825649
53.62	3.79835
53.84	16.7048
54.06	0.684896
54.28	9.66556
54.5	3.65839
54.72	21.7503
54.94	6.69659
55.16	2.83666
55.38	2.88572
55.6	1.95708
55.82	7.88553
56.04	0.83899
56.26	3.6181
56.48	2.62571
56.7	6.38382
56.92	17.4648
57.14	22.2613
57.36	18.2115
57.58	0.912965
57.8	3.08064
58.02	1.89259
58.24	12.9819
58.46	11.3689
58.68	1.53454
58.9	5.49727
59.12	4.63129
59.34	3.61141
59.56	6.88649
59.78	1.14135
60	6.23067
60.22	4.34524
60.44	3.5349
60.66	5.43564
60.88	5.24218
61.1	3.19353
61.32	0.704239
61.54	5.28538
61.76	14.575
61.98	21.416
62.2	1.36789
62.42	8.37857
62.64	6.38419
62.86	2.27997
63.08	8.24859
63.3	7.21949
63.52	5.55616
63.74	0.506346
63.96	4.43286
64.18	2.21303
64.4	10.0941
64.62	3.07196
64.84	3.04895
65.06	3.01038
65.28	0.181221
65.5	2.16241
65.72	14.1599
65.94	1.8486
66.16	0.224629
66.38	2.76238
66.6	2.97154
66.82	2.01522
67.04	2.99668
67.26	1.14851
67.48	4.82552
67.7	2.76481
67.92	20.9072
68.14	8.91198
68.36	6.9808
68.58	5.07039
68.8	3.02241
69.02	1.17981
69.24	2.94005
69.46	8.03122
69.68	0.031664
69.9	2.14751
70.12	4.0084
70.34	4.86361
70.56	1.08459
70.78	3.90278
71	7.76791
71.22	0.246795
71.44	2.83513
71.66	3.82591
71.88	3.76482
72.1	11.7872
72.32	2.83783
72.54	2.8862
72.76	4.87116
72.98	0.726184
73.2	1.66298
73.42	2.7763
73.64	2.89905
73.86	8.72218
74.08	1.68965
74.3	7.89382
74.52	6.06672
74.74	0.012864
74.96	5.0384
75.18	2.35736
75.4	0.696074
75.62	3.7874
75.84	11.7813
76.06	0.718782
76.28	5.80802
76.5	3.8979
76.72	5.86344
76.94	7.72104
77.16	3.73882
77.38	5.90106
77.6	9.5471
77.82	6.46905
78.04	7.60302
78.26	5.71943
78.48	0.046375
78.7	4.9185
78.92	11.0709
79.14	9.05695
79.36	2.96164
79.58	2.93935
79.8	9.73365
80.02	1.65727
80.24	3.61758
80.46	3.44645
80.68	8.50717
80.9	9.40276
81.12	1.28302
81.34	0.0117
81.56	5.80411
81.78	3.73301
82	13.7955
82.22	13.7333
82.44	1.68438
82.66	10.7507
82.88	1.68473
83.1	8.43089
83.32	5.1754
83.54	6.25921
83.76	3.27547
83.98	6.27798
84.2	5.28363
84.42	6.47879
84.64	0.620469
84.86	5.93211
85.08	15.7687
85.3	3.68461
85.52	6.83434
85.74	4.8468
85.96	4.81368
86.18	0.729516
86.4	6.68285
86.62	4.68022
86.84	1.55509
87.06	3.22146
87.28	5.1042
87.5	7.13185
87.72	2.23787
87.94	10.0838
88.16	7.00593
88.38	2.95637
88.6	5.15576
88.82	1.22888
89.04	7.2166
89.26	6.16543
89.48	9.99208
89.7	3.1319
89.92	0.017488
