Measurement: Powder, Xray Data XY Processed
Mineral: Sussexite
Rruff sample: R130121
Ideal chemistry: Mn^2+^BO_2_(OH)
Locality: Mine Hill, Franklin, Sussex County, New Jersey, USA
Source: Rock Currier
Description: Pink massive
Diffraction sample description: Powder
Cell parameters: a: 3.191(1) b: 10.610(1) c: 12.747(2) alpha: 90 beta: 96.58(7) gamma: 90 volume: 428.7(2) crystal system: monoclinic
x	intensity
5	0
5.22	13.384
5.44	24.0513
5.66	21.9103
5.88	46.0926
6.1	17.6981
6.32	68.7066
6.54	23.0492
6.76	24.9999
6.98	41.0939
7.2	27.7353
7.42	19.0465
7.64	6.36945
7.86	4.3634
8.08	74.4035
8.3	44.2625
8.52	15.0818
8.74	35.655
8.96	58.2841
9.18	9.11203
9.4	52.856
9.62	34.8231
9.84	25.0634
10.06	32.299
10.28	16.1303
10.5	13.4531
10.72	49.401
10.94	52.3742
11.16	19.447
11.38	31.576
11.6	31.8467
11.82	20.1855
12.04	23.4156
12.26	29.2522
12.48	47.4676
12.7	20.9062
12.92	0.001038
13.14	21.6948
13.36	67.3474
13.58	34.5786
13.8	221.383
14.02	99.135
14.24	39.8456
14.46	4.90457
14.68	26.0816
14.9	36.5042
15.12	8.80743
15.34	33.6385
15.56	0.68222
15.78	52.3441
16	8.98959
16.22	68.9261
16.44	12.7805
16.66	112.845
16.88	6.36743
17.1	12.8008
17.32	1.97171
17.54	15.1072
17.76	39.4621
17.98	31.6695
18.2	22.0089
18.42	0.181274
18.64	49.6936
18.86	42.8053
19.08	26.6145
19.3	31.1767
19.52	25.6376
19.74	14.7115
19.96	24.9852
20.18	8.50702
20.4	35.8168
20.62	20.4182
20.84	4.08688
21.06	16.5645
21.28	26.6144
21.5	10.7736
21.72	22.1457
21.94	30.4435
22.16	11.9967
22.38	45.5507
22.6	166.154
22.82	27.3131
23.04	23.8934
23.26	4.69907
23.48	29.7289
23.7	13.9779
23.92	73.4954
24.14	23.2762
24.36	26.5143
24.58	26.8316
24.8	50.7631
25.02	40.1444
25.24	17.9756
25.46	59.7259
25.68	10.8379
25.9	54.8541
26.12	139.78
26.34	10.799
26.56	21.781
26.78	47.0338
27	86.6587
27.22	44.3502
27.44	38.6574
27.66	39.0877
27.88	57.8837
28.1	7.58069
28.32	33.7144
28.54	32.2466
28.76	72.5364
28.98	85.6766
29.2	1.19971
29.42	21.9713
29.64	45.3556
29.86	13.6114
30.08	13.7974
30.3	42.6654
30.52	27.8953
30.74	14.9343
30.96	51.6981
31.18	49.891
31.4	39.627
31.62	41.1077
31.84	36.1963
32.06	50.5194
32.28	21.6661
32.5	51.4432
32.72	114.66
32.94	295.675
33.16	65.1313
33.38	40.8162
33.6	27.0467
33.82	121.336
34.04	94.7161
34.26	45.6658
34.48	66.4001
34.7	61.9796
34.92	28.4681
35.14	15.7774
35.36	32.7728
35.58	49.3731
35.8	8.57391
36.02	36.5669
36.24	72.6561
36.46	191.977
36.68	93.2402
36.9	49.0572
37.12	29.3225
37.34	34.5229
37.56	69.3642
37.78	65.4391
38	115.13
38.22	19.2969
38.44	9.34384
38.66	26.0352
38.88	44.7993
39.1	39.8567
39.32	22.4541
39.54	19.2184
39.76	9.04718
39.98	90.4046
40.2	33.4288
40.42	11.949
40.64	48.0994
40.86	63.7653
41.08	31.7954
41.3	21.6059
41.52	48.4569
41.74	24.6015
41.96	27.0035
42.18	0.843903
42.4	58.2806
42.62	28.7917
42.84	85.8124
43.06	56.3447
43.28	33.0206
43.5	11.8376
43.72	14.988
43.94	54.659
44.16	16.3773
44.38	62.1964
44.6	96.5235
44.82	15.621
45.04	10.1093
45.26	16.693
45.48	28.9997
45.7	11.7899
45.92	20.6153
46.14	33.6351
46.36	16.1172
46.58	25.6027
46.8	40.4597
47.02	46.3426
47.24	26.8408
47.46	16.1663
47.68	44.4076
47.9	24.9613
48.12	29.9681
48.34	4.01489
48.56	32.8534
48.78	3.17169
49	17.2688
49.22	31.2678
49.44	11.9283
49.66	39.0499
49.88	34.1179
50.1	27.8055
50.32	41.2093
50.54	37.9529
50.76	12.9907
50.98	33.228
51.2	22.6953
51.42	45.2816
51.64	61.3051
51.86	18.3351
52.08	22.4524
52.3	29.4427
52.52	34.0192
52.74	25.8562
52.96	82.5923
53.18	4.11777
53.4	43.874
53.62	7.61179
53.84	48.1846
54.06	38.0381
54.28	16.1307
54.5	44.4992
54.72	33.7887
54.94	44.7285
55.16	20.4486
55.38	54.2464
55.6	43.8222
55.82	20.1694
56.04	78.886
56.26	47.5494
56.48	7.00125
56.7	19.7172
56.92	15.2719
57.14	13.7502
57.36	36.2281
57.58	84.4209
57.8	48.2848
58.02	27.9452
58.24	61.5404
58.46	21.7477
58.68	7.06091
58.9	5.923
59.12	3.75052
59.34	11.6409
59.56	19.279
59.78	70.7742
60	33.7933
60.22	7.40964
60.44	29.2228
60.66	50.2762
60.88	42.2098
61.1	21.4188
61.32	14.4507
61.54	23.5608
61.76	32.3538
61.98	30.7545
62.2	0.849548
62.42	28.7083
62.64	15.5953
62.86	7.02374
63.08	27.8536
63.3	31.2073
63.52	35.145
63.74	32.0042
63.96	30.4698
64.18	16.4148
64.4	48.6251
64.62	13.5069
64.84	1.43881
65.06	40.4737
65.28	61.2312
65.5	46.943
65.72	27.0771
65.94	25.5865
66.16	58.4584
66.38	25.9387
66.6	46.9453
66.82	19.939
67.04	41.5894
67.26	30.8848
67.48	48.3874
67.7	6.29077
67.92	33.1617
68.14	52.1097
68.36	21.9263
68.58	6.88925
68.8	59.049
69.02	28.8263
69.24	50.8863
69.46	42.0985
69.68	15.4489
69.9	6.78207
70.12	44.2818
70.34	33.7634
70.56	14.5631
70.78	30.0178
71	18.3743
71.22	15.1906
71.44	18.1559
71.66	19.54
71.88	1.56436
72.1	49.6003
72.32	12.3618
72.54	10.6732
72.76	8.82257
72.98	23.6505
73.2	0.889755
73.42	56.7536
73.64	24.0276
73.86	33.3035
74.08	32.8587
74.3	15.5896
74.52	29.6505
74.74	14.7803
74.96	65.793
75.18	42.0605
75.4	21.257
75.62	18.878
75.84	16.286
76.06	48.6961
76.28	26.3581
76.5	42.9061
76.72	57.1986
76.94	1.99542
77.16	31.1156
77.38	16.4292
77.6	51.3057
77.82	4.76038
78.04	33.9871
78.26	17.5819
78.48	34.6786
78.7	36.7503
78.92	32.8768
79.14	0.029099
79.36	62.888
79.58	47.8085
79.8	9.03708
80.02	35.9459
80.24	28.6236
80.46	7.63278
80.68	29.1826
80.9	17.9433
81.12	27.4038
81.34	19.9325
81.56	14.1697
81.78	4.78761
82	8.63449
82.22	11.6566
82.44	11.3394
82.66	38.5029
82.88	28.3803
83.1	56.7494
83.32	29.7318
83.54	33.704
83.76	42.9572
83.98	17.916
84.2	35.3892
84.42	32.901
84.64	28.1316
84.86	52.6036
85.08	62.9564
85.3	44.5691
85.52	48.4239
85.74	56.5664
85.96	68.2905
86.18	15.0722
86.4	27.9291
86.62	28.8476
86.84	30.0874
87.06	1.12256
87.28	52.8795
87.5	15.1495
87.72	12.5258
87.94	54.0497
88.16	35.1301
88.38	45.7628
88.6	34.5372
88.82	8.77448
89.04	46.5344
89.26	14.1618
89.48	16.0911
89.7	29.6822
89.92	21.7769
