Measurement: Powder, Xray Data XY Processed
Mineral: Svanbergite
Rruff sample: R060501
Ideal chemistry: SrAl_3_(S^6+^O_4_)(PO_4_)(OH)_6_
Locality: Dover mine, near Hawthorne, Mineral County, Nevada, USA
Source: Michael Scott
Description: Brownish-orange coarsely granular
Diffraction sample description: Powder
Measured chemistry: (Sr_0.63_Ca_0.33_Ba_0.04_)_Î£=1_Al_3.00_[(P_0.50_S_0.50_)O_4_]_2_(OH)_6_
Cell parameters: a: 6.8224(2) b: 6.8224(2) c: 6.8224(2) alpha: 61.522(1) beta: 61.522(1) gamma: 61.522(1) volume: 232.21(1) crystal system: rhombohedral
x	intensity
5	0
5.22	9.08152
5.44	5.16117
5.66	10.1891
5.88	16.4417
6.1	7.8754
6.32	8.56504
6.54	9.88487
6.76	9.37282
6.98	11.1362
7.2	16.8462
7.42	1.55749
7.64	4.82928
7.86	4.19937
8.08	0.47005
8.3	0.216897
8.52	4.95179
8.74	10.1202
8.96	7.09824
9.18	0.902327
9.4	8.87611
9.62	4.83175
9.84	1.78864
10.06	1.8604
10.28	5.09851
10.5	4.14536
10.72	2.40294
10.94	4.65316
11.16	2.68301
11.38	2.77744
11.6	1.99669
11.82	3.26729
12.04	6.53074
12.26	1.6883
12.48	7.78993
12.7	5.77217
12.92	7.72466
13.14	11.7234
13.36	11.645
13.58	4.63855
13.8	1.81498
14.02	2.7444
14.24	9.42234
14.46	4.04343
14.68	1.13952
14.9	5.83432
15.12	7.74963
15.34	7.71035
15.56	27.6855
15.78	16.8241
16	5.86888
16.22	8.91724
16.44	4.10996
16.66	4.20393
16.88	1.3713
17.1	5.46681
17.32	1.57407
17.54	4.60424
17.76	3.69372
17.98	2.91068
18.2	47.8696
18.42	6.93942
18.64	4.75614
18.86	4.79689
19.08	5.88911
19.3	8.91249
19.52	1.96598
19.74	7.94132
19.96	4.09051
20.18	7.03204
20.4	1.15121
20.62	0.484483
20.84	5.37588
21.06	10.4089
21.28	2.44364
21.5	8.61003
21.72	5.65204
21.94	1.65942
22.16	6.66127
22.38	9.61944
22.6	7.84447
22.82	4.83044
23.04	8.34302
23.26	2.37172
23.48	0.258556
23.7	2.15395
23.92	6.84796
24.14	7.5129
24.36	7.23268
24.58	3.91106
24.8	6.56831
25.02	4.94237
25.24	7.6038
25.46	22.3571
25.68	16.0656
25.9	8.13199
26.12	10.4221
26.34	9.40789
26.56	2.54718
26.78	24.9779
27	6.14086
27.22	2.2917
27.44	2.9203
27.66	4.03575
27.88	2.91962
28.1	0.955255
28.32	5.56057
28.54	0.090156
28.76	3.71948
28.98	5.37782
29.2	2.80139
29.42	8.52838
29.64	12.1585
29.86	6.87279
30.08	114.891
30.3	212.122
30.52	28.207
30.74	2.37979
30.96	17.6481
31.18	6.83622
31.4	4.00568
31.62	16.1706
31.84	1.57021
32.06	0.617309
32.28	1.50036
32.5	77.7817
32.72	8.72587
32.94	6.88727
33.16	10.0981
33.38	8.07425
33.6	5.52197
33.82	1.7305
34.04	4.09421
34.26	7.25815
34.48	3.30516
34.7	10.5879
34.92	4.57725
35.14	6.69541
35.36	5.85048
35.58	11.7213
35.8	3.34995
36.02	9.33026
36.24	9.29578
36.46	9.18895
36.68	6.19655
36.9	58.1394
37.12	3.11363
37.34	7.31584
37.56	6.23866
37.78	5.23586
38	3.45268
38.22	1.56326
38.44	10.3759
38.66	4.15771
38.88	5.86663
39.1	0.588677
39.32	5.00356
39.54	6.3084
39.76	0.397019
39.98	17.0271
40.2	1.56484
40.42	18.7422
40.64	6.35242
40.86	12.2484
41.08	379.167
41.3	30.9396
41.52	4.31059
41.74	9.85947
41.96	11.3378
42.18	1.86966
42.4	9.40846
42.62	4.99129
42.84	5.65985
43.06	5.26473
43.28	2.74184
43.5	4.75895
43.72	12.6818
43.94	1.52004
44.16	6.39224
44.38	3.35892
44.6	3.26918
44.82	3.25694
45.04	0.28465
45.26	9.98173
45.48	18.7923
45.7	0.754883
45.92	2.72989
46.14	6.7389
46.36	1.29156
46.58	8.67366
46.8	3.75265
47.02	4.75072
47.24	8.666
47.46	8.45735
47.68	6.65287
47.9	10.6673
48.12	131.726
48.34	14.6128
48.56	9.5374
48.78	11.5278
49	7.64316
49.22	2.72093
49.44	2.94455
49.66	14.0244
49.88	7.0083
50.1	3.23827
50.32	13.4745
50.54	4.3745
50.76	6.44418
50.98	4.58286
51.2	5.56629
51.42	2.56764
51.64	4.44895
51.86	9.30936
52.08	4.49509
52.3	6.44955
52.52	45.0448
52.74	6.83277
52.96	2.67693
53.18	1.6439
53.4	8.79654
53.62	6.84713
53.84	16.0025
54.06	2.98417
54.28	2.85672
54.5	2.88901
54.72	6.04772
54.94	0.022406
55.16	8.88627
55.38	7.73088
55.6	5.51142
55.82	3.32462
56.04	21.2985
56.26	6.06741
56.48	16.1317
56.7	33.2105
56.92	7.05494
57.14	5.04066
57.36	1.28199
57.58	0.54237
57.8	15.7084
58.02	7.29599
58.24	2.61855
58.46	6.69516
58.68	2.84586
58.9	3.82843
59.12	4.95173
59.34	9.17074
59.56	0.222696
59.78	8.18927
60	13.0985
60.22	1.0792
60.44	8.80486
60.66	2.44219
60.88	4.4166
61.1	3.12211
61.32	6.83796
61.54	4.54688
61.76	4.08495
61.98	2.46191
62.2	3.2654
62.42	0.298944
62.64	5.19332
62.86	3.77919
63.08	48.7245
63.3	15.684
63.52	4.84416
63.74	8.24522
63.96	4.80492
64.18	72.1761
64.4	54.6685
64.62	13.0085
64.84	1.97948
65.06	2.05913
65.28	9.3302
65.5	7.5112
65.72	5.81045
65.94	3.93547
66.16	1.80935
66.38	3.67648
66.6	3.53011
66.82	2.46087
67.04	0.65704
67.26	0.290279
67.48	3.17536
67.7	6.96234
67.92	0.163009
68.14	2.51625
68.36	6.33216
68.58	12.5175
68.8	6.47276
69.02	3.47786
69.24	13.3887
69.46	6.52616
69.68	3.09009
69.9	8.39815
70.12	4.70832
70.34	8.00197
70.56	3.20586
70.78	0.736627
71	1.1434
71.22	8.34485
71.44	8.39549
71.66	6.39983
71.88	1.38636
72.1	7.04399
72.32	4.895
72.54	2.06111
72.76	2.93649
72.98	4.93217
73.2	3.98103
73.42	1.93782
73.64	2.84323
73.86	56.3382
74.08	24.4124
74.3	10.4876
74.52	1.36097
74.74	4.34244
74.96	8.13027
75.18	8.28301
75.4	4.23136
75.62	4.13968
75.84	5.82067
76.06	0.871027
76.28	2.81551
76.5	5.8808
76.72	16.0477
76.94	6.03169
77.16	3.15205
77.38	7.33326
77.6	9.31571
77.82	0.571548
78.04	1.57664
78.26	8.83342
78.48	1.61212
78.7	0.553026
78.92	0.612203
79.14	1.08955
79.36	1.91385
79.58	2.59405
79.8	3.25821
80.02	9.98965
80.24	28.8897
80.46	16.7926
80.68	8.38522
80.9	2.28397
81.12	6.08587
81.34	3.14686
81.56	1.27236
81.78	10.4867
82	17.6137
82.22	8.7331
82.44	1.79764
82.66	0.12066
82.88	0.87399
83.1	9.34085
83.32	5.56749
83.54	6.62787
83.76	6.87405
83.98	11.9742
84.2	4.86738
84.42	5.87409
84.64	4.9301
84.86	3.80468
85.08	3.72325
85.3	15.8394
85.52	8.79503
85.74	8.79126
85.96	8.90512
86.18	2.63131
86.4	4.39458
86.62	5.28173
86.84	2.16546
87.06	11.0212
87.28	2.90106
87.5	16.7588
87.72	13.6203
87.94	16.6091
88.16	3.54419
88.38	7.63009
88.6	3.88702
88.82	8.09969
89.04	9.41802
89.26	3.64117
89.48	0.799281
89.7	1.98865
89.92	2.00277
