Measurement: Powder, Xray Data XY Processed
Mineral: Talnakhite
Rruff sample: R060389
Ideal chemistry: Cu_9_Fe_8_S_16_
Locality: Oktyabrskiy mine, Talnakh, Noril'sk Region, Siberia, U.S.S.R.
Source: Michael Scott
Description: Bronze metallic massive, associated with cubanite. We can not tell the difference between them by eye.
Diffraction sample description: Powder, cell parameters are from single crystal
Measured chemistry: (Cu_8.70_Ni_0.30_)_Î£=9_Fe_9.00_S_16.00_
Cell parameters: a: 10.613(5) b: 10.613(5) c: 10.613(5) alpha: 90 beta: 90 gamma: 90 volume: 1195.6(4) crystal system: cubic
x	intensity
5	0
5.22	8.11337
5.44	17.8952
5.66	11.5745
5.88	1.14526
6.1	5.52032
6.32	12.124
6.54	21.8684
6.76	17.4884
6.98	8.55317
7.2	1.92216
7.42	16.5058
7.64	4.79871
7.86	2.32415
8.08	16.496
8.3	6.09513
8.52	1.68532
8.74	19.0027
8.96	10.0363
9.18	5.57697
9.4	18.2917
9.62	8.01572
9.84	18.5829
10.06	18.4531
10.28	11.0032
10.5	10.9311
10.72	19.8827
10.94	15.4031
11.16	14.1891
11.38	8.18061
11.6	19.0831
11.82	14.9989
12.04	19.349
12.26	7.42356
12.48	23.6843
12.7	2.07478
12.92	11.1653
13.14	11.5729
13.36	2.71042
13.58	13.0081
13.8	14.4176
14.02	11.2696
14.24	3.58165
14.46	1.72507
14.68	13.577
14.9	20.1182
15.12	24.8332
15.34	20.3463
15.56	3
15.78	8.65642
16	11.3979
16.22	24.601
16.44	0.398006
16.66	10.2338
16.88	10.1547
17.1	0.927891
17.32	14.9595
17.54	6.82773
17.76	6.64333
17.98	14.6307
18.2	1.27607
18.42	6.00618
18.64	12.9709
18.86	12.6479
19.08	14.5454
19.3	19.2749
19.52	17.14
19.74	23.0434
19.96	26.4553
20.18	10.2656
20.4	29.474
20.62	9.00655
20.84	7.27001
21.06	14.2612
21.28	25.1208
21.5	7.47234
21.72	11.9388
21.94	14.8484
22.16	15.7316
22.38	14.8741
22.6	6.62375
22.82	16.4831
23.04	6.37434
23.26	4.89976
23.48	20.641
23.7	12.8366
23.92	19.2511
24.14	11.0798
24.36	12.7787
24.58	0.264366
24.8	16.0221
25.02	0.87553
25.24	6.63655
25.46	11.2713
25.68	17.9444
25.9	13.6092
26.12	3.41052
26.34	8.32221
26.56	4.78404
26.78	8.20473
27	8.04927
27.22	21.8553
27.44	7.00936
27.66	33.0207
27.88	9.36283
28.1	2.68224
28.32	14.2419
28.54	3.73053
28.76	16.3741
28.98	12.2321
29.2	71.0544
29.42	66.0877
29.64	29.914
29.86	18.0467
30.08	13.041
30.3	5.62806
30.52	10.6738
30.74	20.413
30.96	0.53936
31.18	4.33173
31.4	6.79793
31.62	17.9477
31.84	15.1777
32.06	15.13
32.28	29.452
32.5	12.5824
32.72	9.31065
32.94	13.8284
33.16	13.8128
33.38	7.16466
33.6	18.034
33.82	14.1608
34.04	10.1727
34.26	16.4128
34.48	18.1015
34.7	21.0294
34.92	4.66723
35.14	11.1879
35.36	20.9315
35.58	18.3861
35.8	0.482624
36.02	6.52674
36.24	3.82818
36.46	2.18097
36.68	1.22953
36.9	9.32789
37.12	15.6865
37.34	5.55302
37.56	26.6812
37.78	10.3213
38	10.9944
38.22	17.5483
38.44	0.905231
38.66	4.09188
38.88	19.5337
39.1	15.6257
39.32	12.1319
39.54	22.4255
39.76	5.75386
39.98	3.11606
40.2	13.5976
40.42	5.16299
40.64	13.1606
40.86	11.6972
41.08	14.5276
41.3	25.2587
41.52	15.4687
41.74	9.44545
41.96	24.3769
42.18	12.2886
42.4	15.1381
42.62	36.8368
42.84	12.9607
43.06	24.988
43.28	24.7751
43.5	22.9343
43.72	13.8448
43.94	5.0701
44.16	18.7047
44.38	21.5107
44.6	21.238
44.82	27.0993
45.04	6.55839
45.26	15.0775
45.48	12.7234
45.7	8.40542
45.92	11.6951
46.14	21.3257
46.36	16.8435
46.58	16.5967
46.8	10.3368
47.02	8.91641
47.24	8.73055
47.46	5.05921
47.68	6.38851
47.9	26.7015
48.12	14.1184
48.34	15.1223
48.56	42.6982
48.78	66.1778
49	49.6463
49.22	18.9355
49.44	10.045
49.66	13.4622
49.88	6.74142
50.1	0.082413
50.32	20.7736
50.54	15.2775
50.76	19.2197
50.98	2.52004
51.2	7.82964
51.42	12.0979
51.64	16.2309
51.86	11.499
52.08	9.05597
52.3	18.9849
52.52	19.2102
52.74	27.6888
52.96	8.64786
53.18	19.8828
53.4	20.619
53.62	28.7008
53.84	16.9668
54.06	18.9068
54.28	17.1205
54.5	10.0282
54.72	12.9045
54.94	8.45659
55.16	8.75804
55.38	1.68364
55.6	22.4716
55.82	12.9747
56.04	8.3724
56.26	19.4957
56.48	8.70559
56.7	9.88511
56.92	18.4963
57.14	19.1253
57.36	18.1183
57.58	16.9825
57.8	22.4621
58.02	24.7336
58.24	15.9118
58.46	19.2738
58.68	17.6934
58.9	25.6658
59.12	8.04088
59.34	19.2723
59.56	17.4061
59.78	9.18589
60	9.24787
60.22	19.0394
60.44	4.69881
60.66	3.07488
60.88	2.28919
61.1	2.1483
61.32	34.3867
61.54	8.52685
61.76	16.1462
61.98	19.2136
62.2	22.319
62.42	18.5926
62.64	17.6719
62.86	20.7523
63.08	24.2084
63.3	27.1553
63.52	11.6679
63.74	14.5571
63.96	29.1192
64.18	13.6929
64.4	8.89215
64.62	20.9494
64.84	12.5867
65.06	27.3252
65.28	4.12423
65.5	10.0698
65.72	10.2366
65.94	24.8196
66.16	20.7442
66.38	25.0601
66.6	21.2985
66.82	17.1358
67.04	5.42241
67.26	26.3451
67.48	9.1781
67.7	6.60615
67.92	5.40676
68.14	7.97351
68.36	3.06829
68.58	15.7414
68.8	21.06
69.02	27.4065
69.24	24.5281
69.46	0.837547
69.68	5.10767
69.9	25.9871
70.12	16.4259
70.34	26.0904
70.56	23.1116
70.78	8.75562
71	9.61044
71.22	18.1114
71.44	5.84013
71.66	18.046
71.88	14.2855
72.1	8.68504
72.32	15.5652
72.54	18.6043
72.76	6.50633
72.98	14.0523
73.2	16.7531
73.42	9.63542
73.64	16.0183
73.86	12.8356
74.08	19.989
74.3	11.5719
74.52	10.111
74.74	11.9889
74.96	19.1132
75.18	8.27194
75.4	13.6204
75.62	16.5057
75.84	7.31657
76.06	27.7135
76.28	24.775
76.5	13.2749
76.72	8.4283
76.94	3.47568
77.16	0.026939
77.38	15.3521
77.6	17.7511
77.82	4.98585
78.04	20.5988
78.26	12.1087
78.48	14.7949
78.7	12.1896
78.92	13.4999
79.14	15.0501
79.36	8.10451
79.58	10.006
79.8	16.0786
80.02	10.3434
80.24	6.67757
80.46	31.4179
80.68	8.2019
80.9	20.2856
81.12	8.55918
81.34	12.661
81.56	17.5541
81.78	18.564
82	0.300346
82.22	35.8184
82.44	28.4274
82.66	16.5177
82.88	1.76339
83.1	32.857
83.32	14.6777
83.54	9.29626
83.76	32.8116
83.98	12.9857
84.2	26.0091
84.42	29.1123
84.64	7.86736
84.86	4.86543
85.08	12.5462
85.3	33.0019
85.52	3.69994
85.74	27.7301
85.96	17.0549
86.18	11.0974
86.4	16.6343
86.62	2.01615
86.84	23.8729
87.06	9.02396
87.28	23.1231
87.5	17.4645
87.72	17.6578
87.94	16.5108
88.16	14.5007
88.38	30.4889
88.6	47.021
88.82	33.9094
89.04	14.3558
89.26	33.4098
89.48	23.1968
89.7	27.6588
89.92	26.8446
