Measurement: Powder, Xray Data XY Processed
Mineral: Taneyamalite
Rruff sample: R070705
Ideal chemistry: (Na,Ca)Mn^2+^_12_(Si,Al)_12_(O,OH)_44_
Locality: Taneyama mine, Kumamoto Prefecture, Kyushu Island, Japan
Source: Michael Scott
Description: Contorted mats of black fibers
Diffraction sample description: Powder
Cell parameters: a: 10.2145(2) b: 9.7449(4) c: 9.3679(8) alpha: 91.05(1) beta: 69.53(1) gamma: 109.23(2) volume: 819.9(1) crystal system: triclinic
x	intensity
5	0
5.22	22.8731
5.44	3.6839
5.66	0.137718
5.88	22.0242
6.1	36.1664
6.32	20.7902
6.54	9.32186
6.76	11.0576
6.98	22.5856
7.2	20.002
7.42	28.2332
7.64	24.7109
7.86	16.0724
8.08	18.8066
8.3	20.4922
8.52	4.6347
8.74	10.1547
8.96	9.13214
9.18	20.2901
9.4	31.4364
9.62	247.302
9.84	22.912
10.06	33.7285
10.28	18.6351
10.5	14.5609
10.72	23.7028
10.94	32.2441
11.16	108.216
11.38	16.3354
11.6	12.1229
11.82	6.79075
12.04	20.479
12.26	24.5387
12.48	17.3224
12.7	10.776
12.92	6.34334
13.14	14.5154
13.36	3.2644
13.58	9.50945
13.8	27.7807
14.02	15.7974
14.24	10.9381
14.46	11.9268
14.68	14.3491
14.9	16.0208
15.12	26.6973
15.34	22.3389
15.56	4.11657
15.78	28.7608
16	19.2748
16.22	32.9192
16.44	10.2976
16.66	26.9215
16.88	25.241
17.1	14.8028
17.32	23.4162
17.54	12.9143
17.76	0.12281
17.98	14.1408
18.2	20.9873
18.42	57.8642
18.64	10.1569
18.86	30.4458
19.08	25.4886
19.3	16.6583
19.52	30.7876
19.74	4.5437
19.96	1.53359
20.18	20.5041
20.4	30.4526
20.62	7.96861
20.84	19.6122
21.06	23.5471
21.28	8.49903
21.5	5.27979
21.72	16.6914
21.94	21.7936
22.16	26.8793
22.38	27.9629
22.6	12.1205
22.82	9.04548
23.04	10.188
23.26	1.50769
23.48	25.582
23.7	27.6367
23.92	26.2931
24.14	36.6781
24.36	7.29713
24.58	48.5001
24.8	19.182
25.02	27.0336
25.24	2.28731
25.46	21.2489
25.68	4.30224
25.9	19.2312
26.12	34.6661
26.34	31.712
26.56	24.1761
26.78	4.66217
27	6.97396
27.22	21.3292
27.44	96.3573
27.66	33.1344
27.88	33.696
28.1	20.9459
28.32	26.6715
28.54	15.9341
28.76	29.4857
28.98	12.0277
29.2	67.1288
29.42	23.5572
29.64	20.8244
29.86	34.0473
30.08	7.93041
30.3	25.8987
30.52	26.5054
30.74	25.7355
30.96	1.4401
31.18	12.6779
31.4	7.35296
31.62	20.3456
31.84	45.0699
32.06	24.2048
32.28	60.2869
32.5	37.2625
32.72	25.7944
32.94	17.3913
33.16	38.4402
33.38	26.909
33.6	29.0256
33.82	25.4277
34.04	34.1579
34.26	38.3589
34.48	21.9088
34.7	18.8156
34.92	17.2135
35.14	1.86832
35.36	24.9251
35.58	24.0957
35.8	18.8402
36.02	10.9152
36.24	17.7613
36.46	7.55789
36.68	27.2232
36.9	7.54887
37.12	0.255417
37.34	9.738
37.56	20.3024
37.78	7.22686
38	40.0856
38.22	20.2219
38.44	5.3627
38.66	4.5867
38.88	2.85481
39.1	21.5009
39.32	35.1446
39.54	22.3841
39.76	18.6466
39.98	39.7257
40.2	27.7082
40.42	18.3609
40.64	28.1771
40.86	44.9415
41.08	54.114
41.3	48.1218
41.52	43.9518
41.74	18.6027
41.96	18.1801
42.18	1.47428
42.4	20.2704
42.62	15.5995
42.84	28.1693
43.06	31.2554
43.28	32.1289
43.5	16.817
43.72	8.62315
43.94	38.8441
44.16	37.7629
44.38	44.6217
44.6	15.2123
44.82	26.4934
45.04	15.9196
45.26	16.1006
45.48	27.8165
45.7	37.9645
45.92	0.124023
46.14	14.3759
46.36	23.3131
46.58	24.8146
46.8	14.8771
47.02	15.0696
47.24	12.7714
47.46	4.74081
47.68	10.749
47.9	9.81497
48.12	12.9195
48.34	10.8685
48.56	17.7834
48.78	22.0236
49	16.8838
49.22	16.4972
49.44	26.925
49.66	43.4085
49.88	38.7635
50.1	5.48936
50.32	24.9327
50.54	7.41219
50.76	19.7843
50.98	18.7203
51.2	19.9496
51.42	20.4764
51.64	7.95503
51.86	17.344
52.08	15.0885
52.3	21.2764
52.52	6.56227
52.74	26.2814
52.96	3.79319
53.18	0.664749
53.4	12.7426
53.62	37.3021
53.84	15.1879
54.06	0.230324
54.28	14.242
54.5	25.4043
54.72	13.7458
54.94	18.4856
55.16	23.5457
55.38	20.5657
55.6	7.17567
55.82	14.1179
56.04	18.3075
56.26	26.2532
56.48	34.4267
56.7	6.7924
56.92	10.9818
57.14	13.8924
57.36	13.5248
57.58	21.1889
57.8	28.497
58.02	15.2219
58.24	5.5129
58.46	9.89548
58.68	31.9216
58.9	23.683
59.12	29.8056
59.34	39.2541
59.56	26.4188
59.78	13.7271
60	5.39266
60.22	22.7807
60.44	21.2945
60.66	24.4843
60.88	9.52376
61.1	6.43613
61.32	4.76577
61.54	25.2383
61.76	30.0221
61.98	18.5758
62.2	17.2118
62.42	22.5578
62.64	16.2677
62.86	13.1082
63.08	18.9512
63.3	21.9485
63.52	4.09335
63.74	0.060707
63.96	20.1916
64.18	23.0462
64.4	15.0899
64.62	18.9094
64.84	0.569946
65.06	8.61153
65.28	4.10387
65.5	34.2162
65.72	9.11005
65.94	23.4718
66.16	4.51143
66.38	7.0814
66.6	14.8333
66.82	12.196
67.04	9.40192
67.26	26.604
67.48	7.79461
67.7	15.284
67.92	19.6278
68.14	30.6954
68.36	10.3113
68.58	13.4079
68.8	6.86541
69.02	26.6002
69.24	9.4277
69.46	16.3616
69.68	9.85755
69.9	6.09118
70.12	21.9964
70.34	15.8921
70.56	0.885239
70.78	9.11083
71	19.9202
71.22	42.0994
71.44	10.2638
71.66	14.4407
71.88	29.8829
72.1	31.504
72.32	0.462067
72.54	6.71394
72.76	22.9082
72.98	37.2643
73.2	32.6857
73.42	9.6409
73.64	21.7148
73.86	22.5434
74.08	29.2822
74.3	17.7728
74.52	1.81252
74.74	12.7172
74.96	28.0596
75.18	10.6201
75.4	32.8994
75.62	22.9671
75.84	10.143
76.06	22.2101
76.28	25.0778
76.5	38.0523
76.72	9.48904
76.94	14.2642
77.16	5.04093
77.38	11.8769
77.6	8.11932
77.82	14.4492
78.04	8.5761
78.26	12.146
78.48	26.0107
78.7	18.9211
78.92	5.50437
79.14	26.3104
79.36	22.303
79.58	6.30675
79.8	1.13464
80.02	19.9571
80.24	2.30463
80.46	2.51833
80.68	0.255386
80.9	18.1576
81.12	21.8096
81.34	9.89369
81.56	21.8653
81.78	20.8922
82	14.707
82.22	7.73069
82.44	12.5029
82.66	15.7507
82.88	18.9766
83.1	11.2597
83.32	37.0515
83.54	15.8504
83.76	34.3883
83.98	30.5346
84.2	30.9599
84.42	9.64885
84.64	12.6669
84.86	31.8917
85.08	12.4993
85.3	26.6176
85.52	26.0891
85.74	25.9279
85.96	7.94428
86.18	17.4135
86.4	25.325
86.62	11.8508
86.84	22.054
87.06	9.15888
87.28	16.5241
87.5	23.2215
87.72	6.68039
87.94	22.8971
88.16	8.09179
88.38	21.64
88.6	21.966
88.82	35.1007
89.04	21.6936
89.26	9.24054
89.48	20.8884
89.7	14.6694
89.92	0.951782
