Measurement: Powder, Xray Data XY Processed
Mineral: Tantalite-(Mn)
Rruff sample: R060415
Ideal chemistry: Mn^2+^Ta^5+^_2_O_6_
Locality: Nuristan, Laghman Province, Afghanistan
Source: Herb Obodda
Description: Dark brown fragment
Diffraction sample description: Powder
Cell parameters: a: 14.386(2) b: 5.7620(6) c: 5.080(2) alpha: 90 beta: 90 gamma: 90 volume: 421.1(0) crystal system: orthorhombic
x	intensity
5	0
5.22	11.2906
5.44	10.6292
5.66	3.53814
5.88	7.41962
6.1	7.52422
6.32	4.88756
6.54	12.1664
6.76	9.28075
6.98	9.34806
7.2	9.55737
7.42	0.1022
7.64	14.3042
7.86	2.45344
8.08	8.63379
8.3	3.71625
8.52	6.59206
8.74	0.039777
8.96	0.160038
9.18	1.01929
9.4	2.88332
9.62	4.23843
9.84	0.421493
10.06	13.6159
10.28	0.665838
10.5	4.66167
10.72	3.90137
10.94	5.20102
11.16	4.80859
11.38	7.77402
11.6	2.81168
11.82	13.3162
12.04	4.9289
12.26	39.4963
12.48	17.4071
12.7	17.4105
12.92	11.4004
13.14	12.1519
13.36	15.0084
13.58	3.04593
13.8	1.03564
14.02	2.04512
14.24	12.9461
14.46	2.82171
14.68	1.093
14.9	0.020816
15.12	6.29714
15.34	2.66617
15.56	10.2561
15.78	8.68886
16	7.70206
16.22	7.06425
16.44	6.88894
16.66	24.7197
16.88	14.6936
17.1	1.69434
17.32	12.6561
17.54	8.38605
17.76	8.28946
17.98	14.9597
18.2	11.8876
18.42	7.06764
18.64	3.78375
18.86	4.78214
19.08	6.88542
19.3	9.95219
19.52	1.92724
19.74	14.1323
19.96	11.17
20.18	7.30504
20.4	3.53048
20.62	2.44719
20.84	3.482
21.06	2.72541
21.28	0.286151
21.5	10.3912
21.72	9.60587
21.94	0.282129
22.16	13.2813
22.38	4.93516
22.6	6.71594
22.82	1.19184
23.04	7.69155
23.26	8.90642
23.48	6.86681
23.7	6.35926
23.92	26.3146
24.14	96.5223
24.36	26.1447
24.58	13.9175
24.8	23.872
25.02	7.01045
25.24	5.3914
25.46	8.83316
25.68	12.1618
25.9	5.6495
26.12	14.2107
26.34	0.337166
26.56	9.52955
26.78	3.03398
27	18.1411
27.22	5.11256
27.44	13.9211
27.66	8.17947
27.88	6.03093
28.1	5.45638
28.32	9.66159
28.54	1.69501
28.76	1.46109
28.98	6.57101
29.2	5.39799
29.42	13.6551
29.64	28.3292
29.86	153.778
30.08	192.493
30.3	27.604
30.52	15.03
30.74	9.90886
30.96	8.44263
31.18	16.3998
31.4	9.23924
31.62	3.30562
31.84	10.4044
32.06	8.94993
32.28	5.61425
32.5	11.1448
32.72	11.2002
32.94	4.33488
33.16	5.36771
33.38	6.76627
33.6	5.348
33.82	15.1974
34.04	8.64539
34.26	2.0413
34.48	8.39425
34.7	10.0164
34.92	8.42088
35.14	16.3183
35.36	30.1645
35.58	7.57106
35.8	37.9832
36.02	19.0979
36.24	11.1489
36.46	5.37419
36.68	2.67131
36.9	7.16347
37.12	0.475327
37.34	21.5001
37.56	24.688
37.78	7.16457
38	11.6259
38.22	7.75557
38.44	3.11582
38.66	4.11485
38.88	5.11543
39.1	0.044994
39.32	0.803366
39.54	6.59831
39.76	7.9205
39.98	0.751984
40.2	12.4541
40.42	10.5377
40.64	23.9632
40.86	6.69137
41.08	8.60867
41.3	1.85377
41.52	0.670296
41.74	0.392696
41.96	6.59906
42.18	6.2862
42.4	1.18833
42.62	7.62683
42.84	15.2759
43.06	6.11655
43.28	25.5355
43.5	22.5422
43.72	7.37646
43.94	7.51792
44.16	4.83973
44.38	8.14388
44.6	0.921598
44.82	2.64064
45.04	7.9935
45.26	6.7728
45.48	7.97777
45.7	7.08362
45.92	0.862039
46.14	6.80319
46.36	11.5085
46.58	7.2564
46.8	7.96315
47.02	8.13757
47.24	9.69239
47.46	10.1964
47.68	17.033
47.9	14.1125
48.12	9.67005
48.34	4.55968
48.56	7.38734
48.78	8.65018
49	8.57861
49.22	11.4898
49.44	19.1909
49.66	15.1424
49.88	0.189363
50.1	0.793125
50.32	5.14312
50.54	17.7842
50.76	5.15991
50.98	12.6099
51.2	21.3273
51.42	10.7334
51.64	10.2351
51.86	12.8786
52.08	7.32717
52.3	17.0238
52.52	44.6264
52.74	57.9837
52.96	20.9749
53.18	24.0529
53.4	11.6668
53.62	12.5735
53.84	10.6181
54.06	3.10778
54.28	2.7359
54.5	16.4872
54.72	8.21524
54.94	6.52806
55.16	10.1441
55.38	1.94059
55.6	4.90283
55.82	2.95002
56.04	9.20701
56.26	4.08802
56.48	5.69137
56.7	1.83113
56.92	0.702776
57.14	12.638
57.36	6.49428
57.58	1.78013
57.8	22.2614
58.02	14.0778
58.24	5.40849
58.46	5.26582
58.68	11.1834
58.9	9.99276
59.12	5.72837
59.34	13.7012
59.56	5.4582
59.78	15.5278
60	21.6025
60.22	27.0398
60.44	23.3201
60.66	10.484
60.88	10.1868
61.1	5.82138
61.32	8.29385
61.54	14.613
61.76	6.79285
61.98	1.83898
62.2	11.6862
62.42	6.59753
62.64	2.09087
62.86	16.8337
63.08	13.6857
63.3	7.66206
63.52	14.3149
63.74	24.1414
63.96	24.9031
64.18	4.88089
64.4	1.27539
64.62	3.22726
64.84	7.16273
65.06	6.01673
65.28	4.78127
65.5	14.4444
65.72	5.76138
65.94	7.45784
66.16	6.42773
66.38	15.2874
66.6	14.0614
66.82	19.8027
67.04	10.0092
67.26	8.89649
67.48	20.0414
67.7	11.1253
67.92	12.1143
68.14	10.3608
68.36	10.5347
68.58	9.56604
68.8	1.08456
69.02	1.76658
69.24	18.8515
69.46	4.9725
69.68	10.3541
69.9	2.5177
70.12	5.638
70.34	7.06726
70.56	8.01529
70.78	9.16344
71	9.14332
71.22	10.1014
71.44	17.5731
71.66	17.8947
71.88	4.64875
72.1	7.35141
72.32	17.1431
72.54	9.20487
72.76	4.85091
72.98	11.1571
73.2	10.3553
73.42	4.54091
73.64	11.5574
73.86	9.92974
74.08	9.8652
74.3	16.0682
74.52	2.91
74.74	5.95156
74.96	7.67777
75.18	16.4652
75.4	1.8216
75.62	3.50893
75.84	20.031
76.06	8.73047
76.28	12.5018
76.5	17.1277
76.72	3.88644
76.94	2.95058
77.16	10.4872
77.38	2.99884
77.6	7.74493
77.82	15.0858
78.04	5.3774
78.26	4.48135
78.48	6.34532
78.7	8.01587
78.92	10.8139
79.14	8.57002
79.36	12.365
79.58	17.7215
79.8	26.1726
80.02	18.6248
80.24	17.8316
80.46	4.80738
80.68	9.80512
80.9	8.90446
81.12	9.1408
81.34	6.38303
81.56	9.76749
81.78	15.1977
82	2.61869
82.22	3.88297
82.44	4.02719
82.66	11.221
82.88	5.14796
83.1	4.29333
83.32	3.3288
83.54	10.3397
83.76	2.3419
83.98	9.11237
84.2	7.84317
84.42	7.55558
84.64	4.31741
84.86	3.08859
85.08	6.87586
85.3	13.558
85.52	11.6064
85.74	10.4117
85.96	7.30295
86.18	10.0095
86.4	8.08034
86.62	4.95662
86.84	5.0818
87.06	11.9605
87.28	3.77958
87.5	4.32769
87.72	10.3762
87.94	8.07369
88.16	6.20243
88.38	10.703
88.6	15.2054
88.82	2.0838
89.04	3.08101
89.26	19.6938
89.48	21.4734
89.7	14.5951
89.92	7.02555
