Measurement: Powder, Xray Data XY Processed
Mineral: Teallite
Rruff sample: R060487
Ideal chemistry: PbSnS_2_
Locality: Porvenir mine, Huanuni, Department of Oruro, Bolivia
Source: Michael Scott
Description: Grayish black platy metallic mass
Diffraction sample description: Powder
Measured chemistry: (Pb_0.62_Sn_1.38_)_Î£=2_S_2.00_
Cell parameters: a: 11.335(3) b: 4.040(2) c: 4.2871(9) alpha: 90. beta: 90. gamma: 90. volume: 196.35(9) crystal system: orthorhombic
x	intensity
5	0
5.22	6.58799
5.44	9.85533
5.66	2.44474
5.88	5.77888
6.1	16.1499
6.32	12.6701
6.54	6.5757
6.76	2.02958
6.98	6.29262
7.2	9.99608
7.42	4.34679
7.64	0.720416
7.86	3.99495
8.08	0.259952
8.3	0.372711
8.52	5.80644
8.74	1.9406
8.96	4.71566
9.18	3.83953
9.4	1.04582
9.62	4.85681
9.84	3.83209
10.06	2.0151
10.28	1.10118
10.5	3.21275
10.72	3.25246
10.94	1.42647
11.16	1.54872
11.38	3.59617
11.6	3.70969
11.82	7.98335
12.04	1.94156
12.26	1.03573
12.48	5.07332
12.7	5.20223
12.92	2.33048
13.14	5.27202
13.36	4.33725
13.58	4.3427
13.8	2.34506
14.02	6.27899
14.24	3.98401
14.46	2.03039
14.68	2.97944
14.9	0.911083
15.12	0.175716
15.34	1.7774
15.56	3.78939
15.78	4.72803
16	3.79515
16.22	1.74361
16.44	0.045702
16.66	0.913326
16.88	3.90843
17.1	0.934114
17.32	2.85939
17.54	2.92566
17.76	0.953591
17.98	1.8561
18.2	0.865285
18.42	2.76574
18.64	0.810727
18.86	1.53376
19.08	2.45001
19.3	0.55346
19.52	0.628162
19.74	5.58392
19.96	2.55518
20.18	1.42332
20.4	2.46557
20.62	5.33359
20.84	5.20221
21.06	2.98923
21.28	4.86362
21.5	7.73786
21.72	4.67587
21.94	7.55682
22.16	34.4013
22.38	13.3037
22.6	5.31173
22.82	7.34449
23.04	6.35567
23.26	1.49881
23.48	4.6109
23.7	1.72141
23.92	3.94866
24.14	4.74315
24.36	3.68427
24.58	5.48246
24.8	1.96166
25.02	0.595147
25.24	2.85331
25.46	8.27306
25.68	4.80959
25.9	18.3416
26.12	62.9282
26.34	14.4378
26.56	7.64038
26.78	8.97971
27	27.3661
27.22	45.6737
27.44	15.059
27.66	8.51074
27.88	4.19215
28.1	2.71666
28.32	5.4429
28.54	7.80072
28.76	4.13629
28.98	2.21615
29.2	6.58519
29.42	1.95545
29.64	5.58134
29.86	5.28314
30.08	4.75513
30.3	19.9521
30.52	24.2067
30.74	7.63534
30.96	9.2218
31.18	19.6237
31.4	95.899
31.62	233.161
31.84	23.6467
32.06	6.02014
32.28	0.634752
32.5	0.141452
32.72	1.85584
32.94	6.51869
33.16	1.01045
33.38	0.590557
33.6	4.76593
33.82	4.85618
34.04	1.8176
34.26	6.25268
34.48	5.42677
34.7	3.68211
34.92	3.4242
35.14	4.46168
35.36	4.52628
35.58	2.65502
35.8	5.54943
36.02	4.50823
36.24	1.608
36.46	3.44048
36.68	6.38052
36.9	2.32333
37.12	6.97788
37.34	4.75504
37.56	3.5596
37.78	8.20785
38	1.92173
38.22	0.764095
38.44	7.6285
38.66	21.5665
38.88	42.4735
39.1	15.5872
39.32	3.59193
39.54	5.86917
39.76	6.23506
39.98	4.48284
40.2	0.800539
40.42	8.1436
40.64	5.40916
40.86	2.50829
41.08	2.39657
41.3	1.36712
41.52	5.09367
41.74	4.89537
41.96	3.37861
42.18	5.09157
42.4	1.72732
42.62	1.70303
42.84	7.27881
43.06	9.75708
43.28	4.33339
43.5	3.99935
43.72	4.7351
43.94	0.531097
44.16	6.42353
44.38	41.4117
44.6	21.4239
44.82	18.9719
45.04	14.9297
45.26	33.3882
45.48	6.87338
45.7	9.36426
45.92	8.78097
46.14	0.666172
46.36	8.65861
46.58	2.10659
46.8	9.40639
47.02	6.6442
47.24	4.08222
47.46	4.79844
47.68	2.45592
47.9	7.09258
48.12	7.87873
48.34	6.58747
48.56	9.15412
48.78	19.2634
49	9.0794
49.22	5.79699
49.44	7.54029
49.66	5.51023
49.88	3.52883
50.1	4.5262
50.32	3.10572
50.54	15.4215
50.76	24.4735
50.98	21.4274
51.2	3.27375
51.42	1.12253
51.64	6.95868
51.86	6.71515
52.08	4.45461
52.3	7.29394
52.52	11.0805
52.74	8.32641
52.96	11.9676
53.18	6.81078
53.4	9.75008
53.62	17.126
53.84	13.249
54.06	6.59068
54.28	1.90634
54.5	7.12508
54.72	3.48014
54.94	4.81867
55.16	1.18625
55.38	10.5197
55.6	6.95495
55.82	15.2017
56.04	9.27135
56.26	6.43968
56.48	1.33716
56.7	2.03429
56.92	2.27268
57.14	1.52872
57.36	3.62716
57.58	3.72014
57.8	4.63475
58.02	4.53195
58.24	0.331817
58.46	1.24497
58.68	7.27131
58.9	5.35746
59.12	3.11152
59.34	9.06272
59.56	6.97447
59.78	7.97846
60	0.95579
60.22	3.09643
60.44	5.16297
60.66	2.20189
60.88	4.17335
61.1	2.14434
61.32	0.011784
61.54	5.02062
61.76	0.386584
61.98	4.22153
62.2	6.10127
62.42	3.84002
62.64	1.67506
62.86	4.43503
63.08	3.20262
63.3	6.96141
63.52	1.3203
63.74	14.5873
63.96	14.5442
64.18	8.17002
64.4	8.08646
64.62	6.04144
64.84	1.98322
65.06	2.02093
65.28	4.1454
65.5	11.437
65.72	13.6748
65.94	27.8669
66.16	11.996
66.38	3.7947
66.6	2.14855
66.82	3.29534
67.04	0.347001
67.26	3.36691
67.48	0.629653
67.7	4.42241
67.92	3.20573
68.14	1.10548
68.36	13.9721
68.58	1.89184
68.8	4.8075
69.02	2.50783
69.24	0.450642
69.46	4.51896
69.68	5.71485
69.9	8.10384
70.12	5.11357
70.34	4.29048
70.56	10.2803
70.78	6.35217
71	5.24888
71.22	2.39059
71.44	4.38295
71.66	5.3003
71.88	6.3192
72.1	1.18787
72.32	3.80492
72.54	2.59102
72.76	2.38766
72.98	2.31806
73.2	4.27196
73.42	0.76848
73.64	4.26317
73.86	6.41253
74.08	4.52747
74.3	14.4889
74.52	2.73597
74.74	2.93976
74.96	8.08779
75.18	6.34084
75.4	2.48083
75.62	1.79567
75.84	1.85982
76.06	4.69851
76.28	1.62891
76.5	1.59064
76.72	7.51623
76.94	2.4274
77.16	5.25126
77.38	6.13055
77.6	3.88994
77.82	1.7271
78.04	3.51355
78.26	8.47152
78.48	6.55808
78.7	16.5728
78.92	4.75363
79.14	8.81248
79.36	12.0009
79.58	6.37762
79.8	2.61463
80.02	4.90664
80.24	6.02616
80.46	7.13946
80.68	0.285211
80.9	4.15051
81.12	3.05007
81.34	1.93397
81.56	4.73571
81.78	1.60311
82	7.32023
82.22	2.05439
82.44	4.85148
82.66	9.79921
82.88	3.84671
83.1	6.88891
83.32	9.92107
83.54	10.8788
83.76	5.90477
83.98	6.00335
84.2	1.87668
84.42	6.13295
84.64	2.19098
84.86	4.40346
85.08	3.38114
85.3	3.61273
85.52	7.57539
85.74	4.5635
85.96	0.627022
86.18	0.355379
86.4	1.65629
86.62	3.71611
86.84	0.642805
87.06	3.91227
87.28	7.19659
87.5	2.06948
87.72	9.15108
87.94	2.20867
88.16	5.27629
88.38	0.780231
88.6	2.19617
88.82	0.987358
89.04	7.04439
89.26	9.27934
89.48	5.8183
89.7	7.04416
89.92	9.60992
