Measurement: Powder, Xray Data XY Processed
Mineral: Tellurium
Rruff sample: R060136
Ideal chemistry: Te
Locality: Good Hope mine, Vulcan District, Gunnison County, Colorado, USA
Source: University of Arizona Mineral Museum
Description: Steel gray metallic fragment
Diffraction sample description: Powder
Measured chemistry: (Te_0.99_Sb_0.01_)_Î£=1_
Cell parameters: a: 4.4571(4) b: 4.4571(4) c: 5.9178(6) alpha: 90 beta: 90 gamma: 120 volume: 101.81(2) crystal system: hexagonal
x	intensity
5	0
5.22	13.561
5.44	15.073
5.66	8.074
5.88	17.247
6.1	5.821
6.32	0.199
6.54	5.511
6.76	0.117
6.98	3.274
7.2	4.665
7.42	1.928
7.64	4.44
7.86	1.81
8.08	1.279
8.3	1.491
8.52	0.728
8.74	2.082
8.96	0.327
9.18	1.474
9.4	3.613
9.62	3.779
9.84	1.057
10.06	4.045
10.28	1.121
10.5	2.991
10.72	6.936
10.94	0.117
11.16	0.935
11.38	1.93
11.6	1.934
11.82	1.01
12.04	0.922
12.26	4.051
12.48	3.136
12.7	4.22
12.92	2.303
13.14	0.438
13.36	1.441
13.58	0.548
13.8	4.572
14.02	3.642
14.24	5.624
14.46	0.68
14.68	4.728
14.9	2.753
15.12	0.793
15.34	1.866
15.56	1.809
15.78	5.739
16	0.744
16.22	1.748
16.44	0.731
16.66	0.262
16.88	0.749
17.1	1.824
17.32	0.804
17.54	2.769
17.76	3.683
17.98	1.686
18.2	5.67
18.42	1.716
18.64	0.75
18.86	4.764
19.08	2.804
19.3	2.809
19.52	2.735
19.74	1.74
19.96	1.719
20.18	3.754
20.4	0.752
20.62	2.778
20.84	1.758
21.06	1.719
21.28	1.705
21.5	1.683
21.72	0.63
21.94	1.603
22.16	1.554
22.38	1.53
22.6	2.54
22.82	2.562
23.04	9.535
23.26	12.538
23.48	3.546
23.7	0.549
23.92	0.481
24.14	0.432
24.36	2.416
24.58	3.531
24.8	0.502
25.02	2.476
25.24	1.39
25.46	4.433
25.68	3.304
25.9	2.261
26.12	0.183
26.34	2.102
26.56	0.026
26.78	3.845
27	2.718
27.22	4.631
27.44	13.764
27.66	114.684
27.88	33.565
28.1	6.596
28.32	2.646
28.54	1.162
28.76	1.914
28.98	2.076
29.2	4.276
29.42	0.426
29.64	0.503
29.86	0.416
30.08	0.545
30.3	1.636
30.52	1.77
30.74	2.663
30.96	1.644
31.18	4.686
31.4	0.703
31.62	1.716
31.84	0.248
32.06	2.819
32.28	4.779
32.5	1.781
32.72	1.722
32.94	5.701
33.16	2.715
33.38	2.728
33.6	0.673
33.82	1.678
34.04	3.684
34.26	1.647
34.48	1.679
34.7	3.731
34.92	1.764
35.14	7.781
35.36	2.712
35.58	5.636
35.8	7.664
36.02	2.58
36.24	7.515
36.46	6.406
36.68	0.342
36.9	2.207
37.12	1.047
37.34	0.882
37.56	0.76
37.78	6.689
38	6.586
38.22	19.684
38.44	38.67
38.66	10.762
38.88	4.812
39.1	0.679
39.32	0.691
39.54	1.686
39.76	0.308
39.98	3.703
40.2	3.745
40.42	9.761
40.64	19.608
40.86	9.766
41.08	4.672
41.3	2.746
41.52	3.798
41.74	0.908
41.96	1.029
42.18	2.077
42.4	0.103
42.62	0.102
42.84	0.102
43.06	2.157
43.28	4.037
43.5	8.928
43.72	6.029
43.94	5.141
44.16	4.098
44.38	3.102
44.6	0.219
44.82	1.25
45.04	0.729
45.26	1.276
45.48	3.284
45.7	4.397
45.92	9.344
46.14	7.295
46.36	3.196
46.58	0.257
46.8	2.244
47.02	4.192
47.24	1.19
47.46	1.243
47.68	1.214
47.9	0.184
48.12	3.038
48.34	1.979
48.56	1.87
48.78	3.801
49	3.619
49.22	1.487
49.44	3.66
49.66	13.71
49.88	16.606
50.1	4.599
50.32	1.553
50.54	1.585
50.76	5.63
50.98	4.734
51.2	4.85
51.42	5.077
51.64	3.185
51.86	5.199
52.08	5.288
52.3	1.435
52.52	0.561
52.74	4.673
52.96	0.761
53.18	0.81
53.4	0.086
53.62	2.968
53.84	1.912
54.06	5.936
54.28	2.871
54.5	5.877
54.72	0.799
54.94	2.751
55.16	3.78
55.38	0.734
55.6	1.62
55.82	4.515
56.04	0.383
56.26	2.288
56.48	2.177
56.7	7.19
56.92	3.123
57.14	9.182
57.36	4.22
57.58	1.186
57.8	1.288
58.02	2.418
58.24	0.459
58.46	0.632
58.68	4.769
58.9	3.789
59.12	0.122
59.34	2.856
59.56	0.871
59.78	0.084
60	0.114
60.22	0.169
60.44	0.762
60.66	1.753
60.88	1.742
61.1	0.64
61.32	2.433
61.54	1.208
61.76	0.025
61.98	2.756
62.2	0.502
62.42	4.28
62.64	6.179
62.86	9.962
63.08	9.852
63.3	4.768
63.52	3.78
63.74	4.026
63.96	7.219
64.18	4.41
64.4	1.59
64.62	1.705
64.84	2.82
65.06	3.869
65.28	1.039
65.5	3.978
65.72	1.972
65.94	8.028
66.16	0.921
66.38	0.849
66.6	2.747
66.82	0.683
67.04	2.703
67.26	1.769
67.48	8.848
67.7	1.896
67.92	6.011
68.14	2.117
68.36	5.082
68.58	5.206
68.8	2.328
69.02	0.465
69.24	0.52
69.46	2.562
69.68	0.582
69.9	1.717
70.12	4.71
70.34	0.593
70.56	0.507
70.78	1.413
71	0.296
71.22	4.171
71.44	5.051
71.66	0.01
71.88	0.032
72.1	5.079
72.32	3.997
72.54	0.016
72.76	5.183
72.98	1.211
73.2	2.287
73.42	1.303
73.64	5.377
73.86	0.387
74.08	1.434
74.3	2.38
74.52	2.221
74.74	2.2
74.96	2.094
75.18	0.078
75.4	2.057
75.62	3.101
75.84	5.054
76.06	1.07
76.28	3.103
76.5	0.914
76.72	3.176
76.94	1.283
77.16	0.363
77.38	3.449
77.6	2.448
77.82	2.367
78.04	0.503
78.26	2.632
78.48	1.653
78.7	0.659
78.92	3.622
79.14	1.629
79.36	1.685
79.58	1.63
79.8	1.567
80.02	2.499
80.24	3.379
80.46	1.158
80.68	3.921
80.9	1.783
81.12	4.657
81.34	0.506
81.56	8.3
81.78	9.173
82	12.206
82.22	5.216
82.44	8.238
82.66	2.398
82.88	2.554
83.1	0.678
83.32	0.843
83.54	0.042
83.76	2.204
83.98	1.341
84.2	1.448
84.42	3.445
84.64	1.398
84.86	0.587
85.08	4.298
85.3	2.284
85.52	2.312
85.74	1.293
85.96	3.324
86.18	5.226
86.4	5.304
86.62	3.26
86.84	1.265
87.06	1.318
87.28	2.403
87.5	3.497
87.72	1.479
87.94	0.466
88.16	2.508
88.38	1.5
88.6	0.517
88.82	2.492
89.04	3.516
89.26	2.498
89.48	3.522
89.7	6.582
89.92	2.958
