Measurement: Powder, Xray Data XY Processed
Mineral: Tennantite-(Zn)
Rruff sample: R050558
Ideal chemistry: Cu^1+^_6_(Cu^1+^_4_Zn^2+^_2_)As^3+^_4_S^2-^_13_
Locality: Casaplaca mine, Huarochiri Province, Lima Department, Peru
Source: Dave Bunk Minerals
Description: Group of black tetrahedra
Diffraction sample description: Powder
Measured chemistry: (Cu_10.07_Zn_1.83_Fe_0.10_)_Σ=12_(As_2.97_Sb_1.03_)_Σ=4_S_13.00_ ; = light phase. Dark phase = (Cu_10.09_Zn_1.80_Fe_0.11_)_Σ=12_(As_2.85_Sb_1.15_)_Σ=4_S_13.00_
Cell parameters: a: 10.2743(3) b: 10.2743(3) c: 10.2743(3) alpha: 90. beta: 90. gamma: 90. volume: 1084.57(9) crystal system: cubic
x	intensity
5	0
5.22	14.9306
5.44	6.97418
5.66	9.374
5.88	13.9668
6.1	6.81975
6.32	3.53672
6.54	14.7238
6.76	28.0783
6.98	6.24134
7.2	15.2141
7.42	4.31257
7.64	4.77168
7.86	7.7351
8.08	9.13197
8.3	9.51598
8.52	1.25331
8.74	18.8881
8.96	19.3892
9.18	2.80393
9.4	2.92334
9.62	12.3813
9.84	19.1368
10.06	5.641
10.28	43.1118
10.5	16.3924
10.72	22.6619
10.94	12.805
11.16	10.0863
11.38	30.9803
11.6	12.8725
11.82	18.6858
12.04	10.7186
12.26	16.3908
12.48	3.47082
12.7	10.6247
12.92	18.4915
13.14	16.4781
13.36	11.5023
13.58	14.422
13.8	9.31335
14.02	5.08446
14.24	3.10981
14.46	9.72349
14.68	8.16669
14.9	0.052189
15.12	1.23057
15.34	3.36253
15.56	10.5518
15.78	9.11583
16	1.54621
16.22	14.5497
16.44	15.7787
16.66	1.75754
16.88	5.9196
17.1	15.146
17.32	15.017
17.54	13.3145
17.76	7.61611
17.98	12.5382
18.2	1.38092
18.42	9.3013
18.64	6.57099
18.86	3.4095
19.08	35.0825
19.3	13.7307
19.52	12.3892
19.74	1.31692
19.96	2.15482
20.18	23.2066
20.4	0.341789
20.62	3.69374
20.84	3.3078
21.06	10.6384
21.28	1.40641
21.5	6.73123
21.72	8.7754
21.94	19.8791
22.16	8.9221
22.38	7.97162
22.6	6.02862
22.82	19.4992
23.04	19.2031
23.26	7.16646
23.48	17.2464
23.7	14.0861
23.92	7.0349
24.14	6.69302
24.36	6.65615
24.58	35.064
24.8	10.3537
25.02	13.9234
25.24	28.5094
25.46	17.5953
25.68	17.39
25.9	16.1084
26.12	17.8823
26.34	25.2103
26.56	6.00771
26.78	18.676
27	10.9557
27.22	4.32197
27.44	20.8941
27.66	25.8333
27.88	5.64244
28.1	3.98149
28.32	27.5221
28.54	37.1709
28.76	10.6783
28.98	12.9611
29.2	9.21113
29.42	12.6193
29.64	25.1097
29.86	26.9394
30.08	2067.74
30.3	67.4754
30.52	17.0341
30.74	12.607
30.96	0.574989
31.18	23.2597
31.4	15.0313
31.62	12.7494
31.84	7.4478
32.06	0.034134
32.28	15.2609
32.5	34.5293
32.72	24.5952
32.94	11.6959
33.16	9.51532
33.38	10.5446
33.6	11.2435
33.82	14.2502
34.04	4.16538
34.26	6.11022
34.48	3.66446
34.7	10.2491
34.92	183.96
35.14	13.6774
35.36	12.4128
35.58	20.4172
35.8	14.9857
36.02	10.8916
36.24	26.8431
36.46	10.8009
36.68	14.6893
36.9	23.7813
37.12	88.0489
37.34	8.30188
37.56	20.0674
37.78	23.0654
38	19.7219
38.22	24.0215
38.44	4.47457
38.66	0.885609
38.88	21.2584
39.1	2.54685
39.32	2.80367
39.54	20.2395
39.76	2.30563
39.98	9.13996
40.2	0.29599
40.42	16.6927
40.64	10.5291
40.86	12.3739
41.08	14.9797
41.3	12.6705
41.52	2.4673
41.74	10.1457
41.96	13.299
42.18	4.04711
42.4	4.47108
42.62	15.467
42.84	1.77095
43.06	21.6888
43.28	8.44556
43.5	10.0854
43.72	12.2748
43.94	5.75042
44.16	12.2828
44.38	11.8328
44.6	5.88481
44.82	21.5084
45.04	97.9767
45.26	10.8011
45.48	3.53364
45.7	14.5699
45.92	15.8051
46.14	3.77007
46.36	0.588787
46.58	17.3973
46.8	4.05719
47.02	13.628
47.24	2.15336
47.46	10.2241
47.68	18.2196
47.9	14.6775
48.12	18.502
48.34	14.8854
48.56	67.6573
48.78	10.1656
49	20.5941
49.22	11.2084
49.44	12.0894
49.66	27.9963
49.88	32.2151
50.1	160.08
50.32	221.507
50.54	26.3651
50.76	6.33841
50.98	5.09327
51.2	7.28174
51.42	10.0363
51.64	20.6921
51.86	61.5125
52.08	23.1548
52.3	2.11043
52.52	14.2539
52.74	3.07906
52.96	11.1883
53.18	5.48289
53.4	22.6481
53.62	13.3289
53.84	2.9456
54.06	0.863049
54.28	4.85794
54.5	7.74184
54.72	5.1157
54.94	43.3708
55.16	46.0747
55.38	0.400349
55.6	0.699692
55.82	7.1404
56.04	7.36232
56.26	22.9093
56.48	20.0693
56.7	21.8253
56.92	7.83944
57.14	13.6122
57.36	12.7467
57.58	10.3967
57.8	1.68247
58.02	13.2382
58.24	16.1042
58.46	24.9626
58.68	13.3194
58.9	13.9642
59.12	16.7812
59.34	20.8643
59.56	83.5305
59.78	91.2679
60	12.9934
60.22	16.6139
60.44	10.9463
60.66	6.72316
60.88	10.5123
61.1	9.97424
61.32	17.5532
61.54	17.756
61.76	21.9001
61.98	10.9938
62.2	16.6796
62.42	9.74304
62.64	14.9454
62.86	17.5308
63.08	3.58506
63.3	1.6084
63.52	14.5525
63.74	15.2467
63.96	30.5143
64.18	22.7286
64.4	16.7722
64.62	5.19789
64.84	23.322
65.06	12.3159
65.28	1.17937
65.5	15.1361
65.72	11.1426
65.94	11.0592
66.16	11.3273
66.38	10.568
66.6	9.29809
66.82	23.4339
67.04	12.7235
67.26	2.18852
67.48	0.958359
67.7	14.831
67.92	16.2944
68.14	7.93157
68.36	15.1303
68.58	13.261
68.8	2.24825
69.02	12.2277
69.24	11.2249
69.46	4.30711
69.68	17.5336
69.9	8.88795
70.12	12.543
70.34	9.33694
70.56	10.8092
70.78	15.9638
71	1.31835
71.22	10.3293
71.44	15.1955
71.66	15.3703
71.88	18.1395
72.1	9.9229
72.32	31.6473
72.54	6.3398
72.76	11.223
72.98	24.4758
73.2	16.5494
73.42	0.917263
73.64	49.2716
73.86	25.1997
74.08	9.17247
74.3	5.97763
74.52	13.701
74.74	7.17452
74.96	31.3215
75.18	40.3599
75.4	14.9915
75.62	0.516033
75.84	9.11675
76.06	12.386
76.28	16.6197
76.5	5.78643
76.72	19.7534
76.94	4.24499
77.16	3.48666
77.38	9.2445
77.6	22.1579
77.82	8.56667
78.04	15.5837
78.26	30.1093
78.48	0.828323
78.7	0.530758
78.92	19.1403
79.14	15.8103
79.36	1.28816
79.58	23.2613
79.8	2.19535
80.02	3.83778
80.24	66.519
80.46	36.2298
80.68	14.1425
80.9	10.8331
81.12	19.8628
81.34	20.0146
81.56	55.3839
81.78	9.7019
82	16.4903
82.22	12.3665
82.44	13.9416
82.66	11.3825
82.88	6.67793
83.1	15.9446
83.32	6.19342
83.54	10.2204
83.76	13.9379
83.98	12.1212
84.2	26.3752
84.42	13.4388
84.64	19.027
84.86	19.5163
85.08	10.3304
85.3	5.57838
85.52	14.4997
85.74	17.3579
85.96	16.9721
86.18	16.0824
86.4	17.1042
86.62	2.07
86.84	20.769
87.06	11.9206
87.28	14.9686
87.5	5.53241
87.72	5.5294
87.94	18.9578
88.16	18.2765
88.38	21.6557
88.6	17.7007
88.82	4.3608
89.04	14.051
89.26	10.3351
89.48	13.1265
89.7	4.74751
89.92	0.155571
