Measurement: Powder, Xray Data XY Processed
Mineral: Tennantite-(Zn)
Rruff sample: R050438
Ideal chemistry: Cu^1+^_6_(Cu^1+^_4_Zn^2+^_2_)As^3+^_4_S^2-^_13_
Locality: Conception del Oro, Zecatecas, Mexico
Source: University of Arizona Mineral Museum
Description: Grey-black crystals associated with white quartz. The crystals appear to vary in chemistry between tennantite and tetrahedrite.
Diffraction sample description: Powder
Measured chemistry: (Cu_9.94_Zn_1.51_Fe_0.55_)_Σ=12_(As_3.58_Sb_0.42_)_Σ=4_S_13.00_; = dark phase. (Cu_10.03_Zn_1.70_Fe_0.27_)_Σ=12_(As_2.01_Sb_1.99_)_Σ=4_S_13.00_; light phase: (Cu_10.03_Zn_1.84_Fe_0.13_)_Σ=12_(Sb_3.18_As_0.82_)_Σ=4_S_13.00_ ; = gray phase
Cell parameters: a: 10.2232(2) b: 10.2232(2) c: 10.2232(2) alpha: 90. beta: 90. gamma: 90. volume: 1068.47(7) crystal system: cubic
x	intensity
5	0
5.22	15.8052
5.44	18.2351
5.66	6.66239
5.88	17.8657
6.1	25.5884
6.32	21.0001
6.54	22.6989
6.76	16.8182
6.98	12.7688
7.2	29.3444
7.42	14.6521
7.64	14.5844
7.86	6.42275
8.08	18.9185
8.3	5.98798
8.52	12.3672
8.74	1.71913
8.96	14.0233
9.18	13.9875
9.4	1.69691
9.62	11.1875
9.84	10.7987
10.06	8.97268
10.28	15.023
10.5	21.0428
10.72	13.405
10.94	23.7992
11.16	7.55408
11.38	9.12203
11.6	9.10986
11.82	6.05765
12.04	15.1523
12.26	33.0324
12.48	9.97915
12.7	1.73836
12.92	15.8934
13.14	13.1012
13.36	10.4351
13.58	9.63909
13.8	11.0503
14.02	7.26553
14.24	15.3721
14.46	9.33284
14.68	0.510223
14.9	25.3804
15.12	12.0584
15.34	7.97539
15.56	18.3346
15.78	10.1047
16	19.3876
16.22	4.73554
16.44	20.5161
16.66	8.29402
16.88	20.0641
17.1	8.83672
17.32	10.4456
17.54	11.7145
17.76	4.86711
17.98	2.95792
18.2	17.0186
18.42	7.20768
18.64	16.0991
18.86	5.92542
19.08	1.61433
19.3	12.251
19.52	1.07132
19.74	15.9336
19.96	22.3995
20.18	20.7488
20.4	2.36836
20.62	14.3681
20.84	19.4046
21.06	4.76678
21.28	76.6299
21.5	5.90437
21.72	3.84178
21.94	8.36621
22.16	25.114
22.38	5.11369
22.6	8.23442
22.82	32.0206
23.04	10.7949
23.26	12.9682
23.48	14.1805
23.7	4.81847
23.92	1.84619
24.14	12.7303
24.36	30.1318
24.58	21.9699
24.8	24.5423
25.02	25.2279
25.24	19.661
25.46	12.1291
25.68	10.7873
25.9	12.5931
26.12	0.391205
26.34	2.26907
26.56	13.3024
26.78	22.928
27	17.486
27.22	23.3744
27.44	9.39978
27.66	22.3544
27.88	3.97163
28.1	5.86791
28.32	11.5835
28.54	52.3842
28.76	10.1125
28.98	10.6677
29.2	6.69193
29.42	50.2438
29.64	20.4347
29.86	54.5114
30.08	146.122
30.3	1576.24
30.52	54.6077
30.74	17.731
30.96	1.36707
31.18	9.19887
31.4	13.2439
31.62	8.68206
31.84	7.24813
32.06	5.83595
32.28	6.67962
32.5	19.2759
32.72	47.521
32.94	36.5513
33.16	53.6822
33.38	16.1773
33.6	14.1457
33.82	10.0905
34.04	22.9329
34.26	5.79415
34.48	7.53665
34.7	42.8668
34.92	52.1724
35.14	112.38
35.36	9.06567
35.58	15.5949
35.8	8.67384
36.02	9.58065
36.24	9.48504
36.46	14.1413
36.68	10.8045
36.9	18.049
37.12	55.1698
37.34	90.0784
37.56	3.20808
37.78	2.37241
38	0.092815
38.22	14.0417
38.44	23.2925
38.66	21.1077
38.88	22.1436
39.1	12.7758
39.32	17.8673
39.54	5.36024
39.76	4.90104
39.98	6.96809
40.2	14.6077
40.42	7.55468
40.64	11.4832
40.86	8.60249
41.08	18.7002
41.3	10.4768
41.52	24.5857
41.74	12.5064
41.96	29.001
42.18	19.0417
42.4	9.95709
42.62	12.9379
42.84	15.1003
43.06	19.0341
43.28	24.9107
43.5	13.8411
43.72	4.62997
43.94	14.5585
44.16	3.6124
44.38	4.73408
44.6	21.7236
44.82	10.0812
45.04	12.4994
45.26	43.9913
45.48	21.7186
45.7	1.30204
45.92	14.4123
46.14	14.3434
46.36	16.7091
46.58	12.1955
46.8	3.60649
47.02	20.7354
47.24	25.5731
47.46	27.1317
47.68	32.1021
47.9	11.4743
48.12	3.02554
48.34	18.0236
48.56	20.8065
48.78	118.182
49	14.436
49.22	6.48164
49.44	13.1438
49.66	17.9124
49.88	16.1217
50.1	40.3708
50.32	72.4424
50.54	209.963
50.76	21.3769
50.98	7.28366
51.2	0.793938
51.42	26.8499
51.64	13.881
51.86	1.81481
52.08	13.2977
52.3	17.1587
52.52	11.0026
52.74	27.4316
52.96	0.102097
53.18	17.9396
53.4	16.162
53.62	26.6385
53.84	22.1169
54.06	0.895958
54.28	13.2488
54.5	7.14497
54.72	40.3753
54.94	2.11646
55.16	9.70473
55.38	58.6295
55.6	17.67
55.82	6.5906
56.04	13.5137
56.26	49.7894
56.48	26.3095
56.7	3.99796
56.92	4.19785
57.14	19.7092
57.36	10.759
57.58	14.8439
57.8	13.3315
58.02	8.92897
58.24	10.4903
58.46	9.88488
58.68	16.9133
58.9	7.12908
59.12	18.361
59.34	27.4192
59.56	31.1251
59.78	43.2163
60	152.267
60.22	43.7186
60.44	20.1185
60.66	16.3214
60.88	2.46893
61.1	19.9653
61.32	23.3117
61.54	13.7689
61.76	0.291893
61.98	7.22256
62.2	20.4478
62.42	14.3018
62.64	24.5317
62.86	17.507
63.08	14.5693
63.3	7.22072
63.52	25.7526
63.74	29.1154
63.96	0.235077
64.18	15.4991
64.4	33.7071
64.62	13.0488
64.84	7.82521
65.06	7.20278
65.28	6.50561
65.5	7.63428
65.72	25.9108
65.94	21.8482
66.16	7.39777
66.38	29.3919
66.6	7.33624
66.82	26.2162
67.04	27.0559
67.26	38.5196
67.48	28.3892
67.7	2.11733
67.92	18.4122
68.14	8.47141
68.36	6.38392
68.58	21.361
68.8	7.23328
69.02	0.432362
69.24	11.9952
69.46	18.0804
69.68	14.8686
69.9	23.2559
70.12	6.431
70.34	11.3312
70.56	22.4275
70.78	8.48019
71	9.36438
71.22	14.3014
71.44	0.673897
71.66	16.3077
71.88	17.1766
72.1	15.1389
72.32	20.1784
72.54	14.2236
72.76	1.05731
72.98	24.5639
73.2	9.43407
73.42	5.26935
73.64	6.33756
73.86	8.09823
74.08	24.1699
74.3	25.8735
74.52	1.85269
74.74	14.9211
74.96	0.027153
75.18	12.0243
75.4	23.1642
75.62	21.1677
75.84	1.99537
76.06	20.8994
76.28	19.8574
76.5	3.45718
76.72	24.958
76.94	16.1525
77.16	14.8974
77.38	21.4993
77.6	6.68034
77.82	3.15765
78.04	13.9117
78.26	26.1011
78.48	10.9232
78.7	0.938122
78.92	9.93782
79.14	17.4661
79.36	4.04993
79.58	10.7071
79.8	3.47289
80.02	9.56099
80.24	0.359646
80.46	0.778221
80.68	19.2671
80.9	5.2118
81.12	21.8772
81.34	11.4832
81.56	4.244
81.78	8.59361
82	14.5628
82.22	8.79543
82.44	18.0771
82.66	7.25122
82.88	4.46814
83.1	17.2598
83.32	10.6454
83.54	14.8747
83.76	11.9114
83.98	11.5394
84.2	3.94429
84.42	18.0886
84.64	8.47201
84.86	33.6855
85.08	12.4533
85.3	6.40603
85.52	21.2302
85.74	28.0595
85.96	13.7865
86.18	24.3598
86.4	5.77
86.62	21.7985
86.84	2.67249
87.06	2.4759
87.28	5.29558
87.5	8.47978
87.72	9.57747
87.94	18.6601
88.16	6.26014
88.38	32.4578
88.6	27.3333
88.82	17.4165
89.04	0.436844
89.26	20.7259
89.48	5.64815
89.7	12.3401
89.92	12.8576
