Measurement: Powder, Xray Data XY Processed
Mineral: Thenardite
Rruff sample: R040183
Ideal chemistry: Na_2_S^6+^O_4_
Locality: Camp Verde, Yavapai County, Arizona, USA
Source: University of Arizona Mineral Museum
Description: Tan colored fragment
Diffraction sample description: Powder
Measured chemistry: Na_2.00_S_1.00_O_4_
Cell parameters: a: 9.8196(4) b: 12.3047(6) c: 5.8613(2) alpha: 90. beta: 90. gamma: 90. volume: 708.21(3) crystal system: orthorhombic
x	intensity
5	0
5.22	7.75235
5.44	4.66117
5.66	7.48843
5.88	17.3305
6.1	13.5531
6.32	16.8803
6.54	14.0846
6.76	13.6773
6.98	17.9435
7.2	10.7679
7.42	2.44268
7.64	6.2342
7.86	3.91603
8.08	4.95662
8.3	1.51209
8.52	7.23737
8.74	10.7483
8.96	6.51043
9.18	0.513946
9.4	7.52328
9.62	13.4577
9.84	9.40292
10.06	4.29825
10.28	10.2726
10.5	2.87545
10.72	7.80731
10.94	4.79648
11.16	5.75462
11.38	6.36444
11.6	3.32576
11.82	9.3451
12.04	5.38355
12.26	2.46359
12.48	1.66463
12.7	5.68758
12.92	6.75049
13.14	4.06259
13.36	0.870447
13.58	6.97757
13.8	3.13817
14.02	5.45029
14.24	8.60512
14.46	4.69546
14.68	8.60896
14.9	2.71393
15.12	4.03794
15.34	12.1446
15.56	2.07432
15.78	6.424
16	11.5889
16.22	4.78554
16.44	0.259744
16.66	5.69288
16.88	6.89917
17.1	5.11809
17.32	10.0935
17.54	4.77192
17.76	5.43815
17.98	4.27282
18.2	4.8254
18.42	2.43433
18.64	11.2494
18.86	11.247
19.08	651.224
19.3	31.1431
19.52	9.89241
19.74	12.0272
19.96	5.14057
20.18	5.24937
20.4	5.55318
20.62	2.6989
20.84	1.03374
21.06	0.353498
21.28	4.20467
21.5	7.16863
21.72	0.306216
21.94	5.08991
22.16	3.04309
22.38	0.041794
22.6	5.26195
22.82	6.24689
23.04	10.295
23.26	126.204
23.48	11.0693
23.7	1.50283
23.92	4.75483
24.14	3.75331
24.36	10.8614
24.58	2.09648
24.8	7.2062
25.02	4.34291
25.24	3.22421
25.46	6.42361
25.68	4.36353
25.9	8.53717
26.12	1.88157
26.34	6.80532
26.56	5.72155
26.78	3.34801
27	0.747595
27.22	3.0819
27.44	9.41982
27.66	1.79466
27.88	13.2007
28.1	513.75
28.32	22.277
28.54	5.96416
28.76	6.59729
28.98	100.914
29.2	84.2985
29.42	5.65838
29.64	5.39788
29.86	2.99875
30.08	8.21567
30.3	2.58213
30.52	12.5075
30.74	5.12715
30.96	2.15484
31.18	6.3182
31.4	5.31474
31.62	14.5807
31.84	9.99608
32.06	138.506
32.28	615.37
32.5	25.0967
32.72	7.70078
32.94	5.81298
33.16	4.03181
33.38	4.45622
33.6	7.95184
33.82	128.379
34.04	196.627
34.26	11.2163
34.48	4.35416
34.7	0.558359
34.92	5.21723
35.14	6.913
35.36	4.29629
35.58	4.58485
35.8	7.89695
36.02	8.1297
36.24	0.063407
36.46	6.38311
36.68	10.5556
36.9	4.663
37.12	11.6784
37.34	3.42097
37.56	7.16573
37.78	0.100783
38	4.0137
38.22	10.1606
38.44	61.1036
38.66	177.121
38.88	44.8867
39.1	6.65423
39.32	0.968749
39.54	6.96239
39.76	4.96963
39.98	1.99639
40.2	1.04932
40.42	7.16296
40.64	10.0056
40.86	43.1288
41.08	7.32655
41.3	6.25858
41.52	2.37941
41.74	4.68984
41.96	0.111444
42.18	6.99505
42.4	5.08469
42.62	3.17446
42.84	6.19112
43.06	7.30989
43.28	2.06709
43.5	4.99222
43.72	2.95166
43.94	16.8455
44.16	2.50787
44.38	4.67693
44.6	1.7173
44.82	4.8994
45.04	6.03559
45.26	0.311179
45.48	4.3947
45.7	7.29095
45.92	5.60257
46.14	4.13087
46.36	5.56426
46.58	1.03029
46.8	2.32666
47.02	2.50514
47.24	13.4619
47.46	9.33347
47.68	7.33269
47.9	4.3286
48.12	18.5113
48.34	12.6937
48.56	20.4557
48.78	145.835
49	190.346
49.22	16.17
49.44	15.6667
49.66	24.3216
49.88	6.07838
50.1	3.9283
50.32	1.24953
50.54	10.6306
50.76	42.4226
50.98	9.34979
51.2	2.45241
51.42	5.13676
51.64	7.00496
51.86	4.18612
52.08	1.54539
52.3	4.40866
52.52	3.35236
52.74	3.49223
52.96	2.07488
53.18	4.67612
53.4	2.03042
53.62	3.26533
53.84	3.46946
54.06	0.701159
54.28	7.18769
54.5	41.8935
54.72	91.4745
54.94	23.485
55.16	24.6977
55.38	43.2829
55.6	11.4894
55.82	2.13004
56.04	0.205323
56.26	3.27466
56.48	5.28101
56.7	8.24578
56.92	1.81594
57.14	4.47921
57.36	30.1739
57.58	19.6724
57.8	5.91577
58.02	21.8
58.24	13.5151
58.46	14.2805
58.68	7.35813
58.9	2.4865
59.12	8.55091
59.34	28.6725
59.56	80.2571
59.78	32.8366
60	12.1371
60.22	10.4506
60.44	7.57528
60.66	1.22647
60.88	1.86748
61.1	8.89572
61.32	15.9093
61.54	10.039
61.76	3.1322
61.98	44.3735
62.2	13.1037
62.42	1.03023
62.64	4.24123
62.86	1.39558
63.08	0.367095
63.3	2.83953
63.52	9.06535
63.74	0.509988
63.96	4.52633
64.18	0.395327
64.4	3.01986
64.62	4.02496
64.84	9.09188
65.06	9.00501
65.28	35.9671
65.5	24.0949
65.72	9.43368
65.94	5.45937
66.16	6.2072
66.38	6.22104
66.6	7.23498
66.82	1.25574
67.04	0.18546
67.26	1.11075
67.48	9.31624
67.7	14.3297
67.92	7.44807
68.14	5.14668
68.36	12.1997
68.58	5.35574
68.8	4.7108
69.02	5.80511
69.24	6.11774
69.46	3.22628
69.68	7.32739
69.9	6.12524
70.12	5.919
70.34	4.44904
70.56	0.229559
70.78	6.77559
71	2.02293
71.22	22.4572
71.44	15.058
71.66	10.3939
71.88	4.94479
72.1	1.55014
72.32	7.12918
72.54	9.9125
72.76	16.7198
72.98	35.5961
73.2	33.5203
73.42	15.9501
73.64	10.3714
73.86	2.3108
74.08	37.737
74.3	29.0757
74.52	12.4815
74.74	7.82549
74.96	1.84767
75.18	7.64919
75.4	7.97304
75.62	9.15291
75.84	10.4674
76.06	4.05463
76.28	3.63634
76.5	2.53917
76.72	3.75687
76.94	8.82641
77.16	1.85614
77.38	4.97915
77.6	5.79397
77.82	6.748
78.04	2.81775
78.26	5.71241
78.48	3.83333
78.7	7.03953
78.92	13.1736
79.14	13.2845
79.36	3.35335
79.58	4.37362
79.8	0.639753
80.02	5.53271
80.24	5.74249
80.46	1.87564
80.68	9.96508
80.9	1.0789
81.12	6.30382
81.34	4.36411
81.56	6.25278
81.78	0.330993
82	1.40754
82.22	2.54672
82.44	8.5395
82.66	5.60363
82.88	1.87337
83.1	6.9121
83.32	5.58096
83.54	4.55217
83.76	9.57862
83.98	7.43434
84.2	0.314668
84.42	3.18547
84.64	0.984726
84.86	1.12997
85.08	11.8097
85.3	5.62612
85.52	18.5579
85.74	19.7415
85.96	7.70025
86.18	3.19939
86.4	3.14419
86.62	1.15802
86.84	5.25051
87.06	0.258219
87.28	3.24229
87.5	8.90464
87.72	3.78173
87.94	1.72349
88.16	2.44262
88.38	7.33224
88.6	2.10642
88.82	3.32926
89.04	2.36102
89.26	14.5657
89.48	6.06833
89.7	5.04934
89.92	9.28028
