Measurement: Powder, Xray Data XY Processed
Mineral: Thomsonite-Ca
Rruff sample: R050091
Ideal chemistry: NaCa_2_(Al_5_Si_5_)O_20_6H_2_O
Locality: Amudikha River, near Mirny, Yakutia, Siberia, Russia
Source: Rock Currier
Description: Radial groups of colorless bladed crystals
Diffraction sample description: Powder
Measured chemistry: (Na_0.94_[box]_0.06_)_Σ=1_(Ca_1.71_Na_0.29_)_Σ=2_(Si_5.35_Al_4.65_)O_20_·7.09H_2_O
Cell parameters: a: 13.0876(3) b: 13.0621(7) c: 13.2085(4) alpha: 90. beta: 90. gamma: 90. volume: 2258.0(1) crystal system: orthorhombic
x	intensity
0	0
5.19	12.791
5.41	11.003
5.63	6.78
5.85	1.49
6.07	2.723
6.29	7.453
6.51	10.232
6.73	12.021
6.95	12.391
7.17	7.311
7.39	2.319
7.61	6.323
7.83	9.131
8.05	17.388
8.27	3.252
8.49	3.931
8.71	5.991
8.93	2.085
9.15	18.547
9.37	5.551
9.59	155.829
9.81	7.905
10.03	3.007
10.25	11.142
10.47	3.936
10.69	7.098
10.91	12.147
11.13	11.094
11.35	15.009
11.57	2.986
11.79	2.091
12.01	0.48
12.23	13.3
12.45	7.104
12.67	3.185
12.89	3.609
13.11	5.066
13.33	21.082
13.55	367.977
13.77	12.026
13.99	1.456
14.21	4.297
14.43	1.634
14.65	2.247
14.87	12.415
15.09	139.567
15.31	1.749
15.53	5.962
15.75	4.965
15.97	8.081
16.19	5.501
16.41	2.68
16.63	0.993
16.85	9.594
17.07	6.521
17.29	8.559
17.51	0.506
17.73	7.671
17.95	2.656
18.17	0.473
18.39	5.315
18.61	2.983
18.83	7.571
19.05	57.16
19.27	323.413
19.49	8.077
19.71	6.13
19.93	5.044
20.15	3.391
20.37	139.314
20.59	6.349
20.81	3.512
21.03	0.287
21.25	4.314
21.47	113.248
21.69	9.697
21.91	5.79
22.13	2.803
22.35	9.846
22.57	5.444
22.79	4.984
23.01	4.041
23.23	0.131
23.45	9.189
23.67	8.073
23.89	2.292
24.11	8.966
24.33	4.008
24.55	3.973
24.77	6.003
24.99	5.889
25.21	5.135
25.43	375.448
25.65	5.528
25.87	9.469
26.09	10.46
26.31	6.21
26.53	10.256
26.75	5.058
26.97	2.847
27.19	11.641
27.41	9.511
27.63	2.831
27.85	75.587
28.07	151.656
28.29	10.457
28.51	5.66
28.73	4.076
28.95	14.164
29.17	7.127
29.39	1.941
29.61	0.968
29.83	3.11
30.05	13.888
30.27	39.545
30.49	80.054
30.71	51.286
30.93	7.895
31.15	19.354
31.37	232.264
31.59	9.79
31.81	11.997
32.03	35.058
32.25	4.262
32.47	0.076
32.69	10.136
32.91	16.269
33.13	6.39
33.35	13.946
33.57	181.897
33.79	8.075
34.01	3.818
34.23	9.043
34.45	4.462
34.67	13.888
34.89	41.365
35.11	30.857
35.33	3.363
35.55	6.318
35.77	9.167
35.99	2.38
36.21	0.422
36.43	0.155
36.65	11.841
36.87	8.855
37.09	49.166
37.31	5.103
37.53	3.287
37.75	3.87
37.97	0.826
38.19	7.831
38.41	7.643
38.63	7.295
38.85	4.045
39.07	8.788
39.29	3.461
39.51	14.017
39.73	8.729
39.95	15.68
40.17	25.533
40.39	5.352
40.61	7.17
40.83	7.297
41.05	14.305
41.27	89.841
41.49	178.911
41.71	4.137
41.93	4.359
42.15	3.449
42.37	3.199
42.59	33.324
42.81	12.418
43.03	8.482
43.25	4.434
43.47	17.91
43.69	12.554
43.91	28.79
44.13	8.732
44.35	3.497
44.57	5.26
44.79	0.271
45.01	2.783
45.23	5.278
45.45	1.26
45.67	8.226
45.89	3.086
46.11	14.319
46.33	15.346
46.55	34.528
46.77	20.547
46.99	3.587
47.21	1.381
47.43	6.659
47.65	2.58
47.87	2.545
48.09	4.805
48.31	11.711
48.53	6.756
48.75	12.656
48.97	3.163
49.19	3.038
49.41	1.104
49.63	6.722
49.85	3.602
50.07	16.556
50.29	60.43
50.51	24.46
50.73	25.309
50.95	5.121
51.17	1.143
51.39	5.541
51.61	9.799
51.83	1.059
52.05	6.385
52.27	12.562
52.49	8.686
52.71	10.041
52.93	6.259
53.15	5.141
53.37	39.284
53.59	14.34
53.81	4.032
54.03	1.937
54.25	3.22
54.47	11.185
54.69	14.108
54.91	5.317
55.13	6.409
55.35	6.843
55.57	7.643
55.79	14.589
56.01	0.45
56.23	3.778
56.45	18.809
56.67	17.952
56.89	3.814
57.11	31.924
57.33	8.747
57.55	2.577
57.77	8.724
57.99	7.943
58.21	24.849
58.43	15.14
58.65	40.118
58.87	6.247
59.09	0.944
59.31	3.238
59.53	3.622
59.75	7.649
59.97	6.735
60.19	21.89
60.41	12.804
60.63	9.048
60.85	0.9
61.07	1.741
61.29	0.182
61.51	17.888
61.73	1.202
61.95	8.339
62.17	5.364
62.39	0.056
62.61	4.009
62.83	3.904
63.05	1.761
63.27	6.166
63.49	32.487
63.71	34.302
63.93	12.065
64.15	10.373
64.37	1.636
64.59	3.317
64.81	15.296
65.03	7.295
65.25	3.539
65.47	10.781
65.69	7.424
65.91	20.299
66.13	6.431
66.35	0.402
66.57	6.411
66.79	8.57
67.01	16.814
67.23	7.239
67.45	12.125
67.67	18.036
67.89	11.362
68.11	10.543
68.33	3.524
68.55	4.796
68.77	4.854
68.99	8.037
69.21	7.108
69.43	7.97
69.65	6.636
69.87	4.938
70.09	5.756
70.31	0.751
70.53	4.472
70.75	3.209
70.97	12.725
71.19	5.577
71.41	10.126
71.63	5.935
71.85	19.033
72.07	12.005
72.29	6.134
72.51	10.12
72.73	3.84
72.95	0.013
73.17	1.319
73.39	6.493
73.61	4.683
73.83	12.899
74.05	11.315
74.27	8.614
74.49	5.881
74.71	8.931
74.93	12.044
75.15	2.223
75.37	1.342
75.59	4.425
75.81	5.691
76.03	2.904
76.25	2.971
76.47	0.807
76.69	5.518
76.91	5.673
77.13	7.758
77.35	5.641
77.57	1.557
77.79	5.505
78.01	2.319
78.23	0.081
78.45	6.861
78.67	16.964
78.89	22.103
79.11	13.368
79.33	4.098
79.55	0.847
79.77	2.93
79.99	0.094
80.21	2.82
80.43	3.357
80.65	15.463
80.87	4.733
81.09	13.783
81.31	8.701
81.53	2.509
81.75	1.655
81.97	5.035
82.19	7.136
82.41	5.083
82.63	2.103
82.85	0.006
83.07	4.85
83.29	1.051
83.51	5.059
83.73	8.173
83.95	12.168
84.17	8.127
84.39	5.844
84.61	8.844
84.83	5.045
85.05	7.078
85.27	11.557
85.49	10.641
85.71	2.553
85.93	7.524
86.15	5.578
86.37	8.695
86.59	4.71
86.81	1.722
87.03	5.924
87.25	6.868
87.47	3.948
87.69	3.579
87.91	4.603
88.13	7.599
88.35	1.687
88.57	7.71
88.79	6.832
89.01	4.041
89.23	3.912
89.45	6.077
89.67	1.128
89.89	10.472
