Measurement: Powder, Xray Data XY Processed
Mineral: Thomsenolite
Rruff sample: R050282
Ideal chemistry: NaCaAlF_6_H_2_O
Locality: Ivigtut, Greenland
Source: Marcus Origlieri
Description: Colorless prismatic rectangular single crystals associated with colorless ralstonite
Diffraction sample description: Powder
Measured chemistry: Na_1.00_(Ca_0.96_Sr_0.04_)_Σ=1_Al_1.00_F_6.00_·H_2_O
Cell parameters: a: 5.5782(7) b: 5.5533(2) c: 16.125(1) alpha: 90 beta: 96.273(8) gamma: 90 volume: 496.52(6) crystal system: monoclinic
x	intensity
5	0
5.22	4.66425
5.44	3.35085
5.66	1.23883
5.88	8.37179
6.1	11.1554
6.32	12.0526
6.54	7.32691
6.76	4.95228
6.98	5.63962
7.2	15.2818
7.42	4.29998
7.64	4.95277
7.86	1.53097
8.08	5.94569
8.3	8.47981
8.52	4.65441
8.74	10.6648
8.96	5.25111
9.18	7.99491
9.4	5.33932
9.62	9.26375
9.84	8.68955
10.06	13.4886
10.28	7.24195
10.5	3.29234
10.72	8.37201
10.94	14.5242
11.16	15.0503
11.38	3.8668
11.6	3.24351
11.82	4.5591
12.04	3.84698
12.26	2.28511
12.48	5.74527
12.7	2.96728
12.92	5.17689
13.14	0.152593
13.36	0.952413
13.58	2.14861
13.8	3.83718
14.02	6.89464
14.24	6.95828
14.46	6.92561
14.68	7.85943
14.9	2.24535
15.12	1.87682
15.34	2.09902
15.56	41.1417
15.78	2.24634
16	7.44201
16.22	4.71321
16.44	0.998256
16.66	9.20697
16.88	0.42463
17.1	4.83384
17.32	6.11083
17.54	0.843918
17.76	5.21595
17.98	1.46962
18.2	1.62963
18.42	8.65133
18.64	4.7329
18.86	0.170945
19.08	0.940821
19.3	9.83108
19.52	8.80517
19.74	4.84272
19.96	0.890626
20.18	1.9709
20.4	3.77258
20.62	1.82365
20.84	4.86048
21.06	4.45713
21.28	0.110364
21.5	1.21196
21.72	5.6154
21.94	8.42534
22.16	115.158
22.38	15.1432
22.6	18.2433
22.82	38.2174
23.04	13.0017
23.26	1.1932
23.48	1.38623
23.7	0.802556
23.92	0.025102
24.14	1.14714
24.36	6.58955
24.58	3.79272
24.8	4.61505
25.02	3.40013
25.24	1.40397
25.46	3.51523
25.68	4.3914
25.9	6.34805
26.12	34.0118
26.34	4.92064
26.56	5.81847
26.78	1.5979
27	11.867
27.22	50.9622
27.44	26.9585
27.66	9.8679
27.88	7.66989
28.1	4.62365
28.32	1.44375
28.54	7.42947
28.76	7.22438
28.98	16.1048
29.2	9.8306
29.42	7.29155
29.64	2.97988
29.86	50.8663
30.08	1.30795
30.3	2.78871
30.52	8.70796
30.74	102.093
30.96	1.97061
31.18	19.9837
31.4	4.94715
31.62	0.840734
31.84	8.92791
32.06	10.9727
32.28	92.9945
32.5	9.36618
32.72	15.372
32.94	5.46924
33.16	31.4961
33.38	7.08845
33.6	2.43531
33.82	0.742222
34.04	1.26861
34.26	1.42661
34.48	5.61196
34.7	1.7111
34.92	7.43272
35.14	4.39311
35.36	4.29038
35.58	5.57201
35.8	21.1072
36.02	0.893762
36.24	21.6865
36.46	10.2796
36.68	2.31038
36.9	20.2796
37.12	2.34652
37.34	19.3466
37.56	2.77928
37.78	0.9974
38	5.49247
38.22	1.56143
38.44	0.392354
38.66	5.64024
38.88	6.81347
39.1	32.8811
39.32	29.0199
39.54	17.7741
39.76	3.62671
39.98	0.256241
40.2	1.19895
40.42	4.95242
40.64	7.66766
40.86	5.37738
41.08	2.36256
41.3	5.89808
41.52	27.4186
41.74	49.097
41.96	9.90603
42.18	2.15559
42.4	33.2832
42.62	4.15054
42.84	6.05204
43.06	32.2076
43.28	17.2113
43.5	6.12403
43.72	0.942028
43.94	15.6519
44.16	6.29895
44.38	4.84325
44.6	7.49414
44.82	23.426
45.04	30.4461
45.26	197.784
45.48	24.8618
45.7	2.80924
45.92	0.756535
46.14	63.6999
46.36	94.3073
46.58	77.0585
46.8	10.8946
47.02	8.97141
47.24	30.2073
47.46	21.6761
47.68	24.4389
47.9	0.739808
48.12	7.87059
48.34	34.5722
48.56	16.3629
48.78	15.0866
49	0.22422
49.22	3.57107
49.44	18.8487
49.66	10.2528
49.88	30.6337
50.1	23.197
50.32	16.9411
50.54	2.07615
50.76	12.0924
50.98	15.1669
51.2	2.23559
51.42	1.2408
51.64	8.21127
51.86	15.3374
52.08	29.4616
52.3	35.3137
52.52	1.92575
52.74	5.5524
52.96	4.76624
53.18	4.92516
53.4	48.9332
53.62	6.97704
53.84	3.91382
54.06	4.12074
54.28	1.4673
54.5	2.5381
54.72	10.6463
54.94	16.6933
55.16	5.69725
55.38	5.63288
55.6	6.91612
55.82	10.0022
56.04	14.1045
56.26	12.2443
56.48	4.3339
56.7	1.83055
56.92	7.37104
57.14	10.5486
57.36	14.0447
57.58	16.425
57.8	4.5026
58.02	6.41063
58.24	6.58388
58.46	8.04788
58.68	2.11713
58.9	5.07197
59.12	12.0072
59.34	1.70158
59.56	2.63681
59.78	6.1418
60	6.8937
60.22	11.8378
60.44	0.986814
60.66	6.98023
60.88	9.71623
61.1	4.67608
61.32	6.72085
61.54	1.77191
61.76	3.77486
61.98	29.9595
62.2	13.2404
62.42	1.321
62.64	3.40789
62.86	10.2132
63.08	2.29311
63.3	0.539198
63.52	2.55026
63.74	8.64274
63.96	18.75
64.18	5.87297
64.4	7.15723
64.62	2.25344
64.84	3.46014
65.06	4.5054
65.28	1.20577
65.5	2.62739
65.72	8.62025
65.94	2.68053
66.16	6.631
66.38	9.51895
66.6	1.26385
66.82	5.99766
67.04	1.87707
67.26	2.72542
67.48	3.63567
67.7	5.62976
67.92	13.7969
68.14	1.91863
68.36	7.03167
68.58	3.04556
68.8	0.928315
69.02	3.12679
69.24	5.16152
69.46	3.03247
69.68	11.0107
69.9	2.12686
70.12	4.6282
70.34	7.38448
70.56	10.2926
70.78	16.0705
71	5.20179
71.22	1.25486
71.44	7.19338
71.66	11.9934
71.88	7.8357
72.1	5.69657
72.32	1.15813
72.54	2.4813
72.76	17.3491
72.98	5.61973
73.2	12.6121
73.42	6.4272
73.64	6.39928
73.86	0.635191
74.08	4.90506
74.3	4.32686
74.52	7.86554
74.74	13.0388
74.96	8.20259
75.18	1.46122
75.4	2.24577
75.62	1.2134
75.84	7.23664
76.06	10.1391
76.28	5.99505
76.5	10.8248
76.72	8.2724
76.94	8.11913
77.16	7.35125
77.38	7.49265
77.6	15.4311
77.82	14.8897
78.04	5.021
78.26	3.19611
78.48	1.36046
78.7	1.45662
78.92	0.603702
79.14	5.78326
79.36	8.6429
79.58	15.0693
79.8	19.0429
80.02	5.88962
80.24	2.65963
80.46	0.318056
80.68	2.59278
80.9	6.53833
81.12	1.52465
81.34	10.4486
81.56	2.35484
81.78	3.3598
82	3.42608
82.22	7.4926
82.44	11.6282
82.66	4.58319
82.88	4.47483
83.1	1.44634
83.32	2.41322
83.54	1.63663
83.76	9.2956
83.98	10.2441
84.2	3.95621
84.42	7.0759
84.64	4.94414
84.86	7.89686
85.08	5.97739
85.3	2.0535
85.52	4.16262
85.74	0.267534
85.96	2.45223
86.18	4.8061
86.4	6.99489
86.62	6.14525
86.84	8.9771
87.06	2.99892
87.28	0.08693
87.5	4.96716
87.72	2.96947
87.94	2.00865
88.16	3.06612
88.38	4.02249
88.6	8.81286
88.82	7.69262
89.04	4.49413
89.26	1.46652
89.48	5.52502
89.7	9.31644
89.92	0.785101
