Measurement: Powder, Xray Data XY Processed
Mineral: Thorianite
Rruff sample: R060849
Ideal chemistry: ThO_2_
Locality: Belafeno, Malagasy Republic
Source: Michael Scott
Description: Dark brown rough cube
Diffraction sample description: Powder
Cell parameters: a: 5.60841(9) b: 5.60841(9) c: 5.60841(9) alpha: 90 beta: 90 gamma: 90 volume: 176.409(9) crystal system: cubic
x	intensity
5	0
5.22	4.51611
5.44	4.23606
5.66	8.37272
5.88	14.6416
6.1	7.4716
6.32	4.79685
6.54	3.25283
6.76	3.90014
6.98	0.600041
7.2	4.9322
7.42	0.607106
7.64	3.98969
7.86	0.534757
8.08	9.55609
8.3	1.6133
8.52	1.72909
8.74	6.88945
8.96	0.164812
9.18	0.547636
9.4	4.42595
9.62	1.32302
9.84	5.08936
10.06	2.98529
10.28	8.76381
10.5	0.694804
10.72	2.70801
10.94	4.70526
11.16	5.6917
11.38	5.67781
11.6	2.86357
11.82	8.12605
12.04	4.20156
12.26	0.257072
12.48	1.44883
12.7	1.9781
12.92	5.13627
13.14	3.10841
13.36	4.20536
13.58	3.38773
13.8	1.56648
14.02	4.49998
14.24	2.32893
14.46	7.26991
14.68	3.25914
14.9	6.03401
15.12	1.25887
15.34	2.67172
15.56	4.59264
15.78	1.5586
16	0.495505
16.22	4.66523
16.44	0.504265
16.66	0.531928
16.88	3.63184
17.1	2.4477
17.32	2.5718
17.54	2.55044
17.76	5.6593
17.98	4.73605
18.2	0.861851
18.42	3.67177
18.64	4.45008
18.86	2.62483
19.08	7.58424
19.3	6.4986
19.52	6.43499
19.74	0.409843
19.96	6.44447
20.18	4.26922
20.4	0.188879
20.62	3.13382
20.84	5.19785
21.06	4.19749
21.28	8.06832
21.5	6.01271
21.72	3.29067
21.94	3.3606
22.16	0.540897
22.38	3.55924
22.6	9.6708
22.82	4.81104
23.04	0.929969
23.26	3.95661
23.48	4.09618
23.7	2.08542
23.92	4.0568
24.14	3.91118
24.36	8.87203
24.58	4.63613
24.8	10.5943
25.02	6.65978
25.24	6.17614
25.46	4.86571
25.68	3.29478
25.9	3.58352
26.12	1.97626
26.34	7.16588
26.56	5.49442
26.78	5.8025
27	1.17306
27.22	15.5317
27.44	182.824
27.66	381.584
27.88	47.8083
28.1	13.0502
28.32	10.762
28.54	7.12549
28.76	6.71323
28.98	2.2869
29.2	3.83343
29.42	6.54327
29.64	6.00073
29.86	1.4911
30.08	6.02829
30.3	0.803002
30.52	1.81248
30.74	5.39926
30.96	4.41387
31.18	9.27856
31.4	7.23062
31.62	11.3799
31.84	94.1311
32.06	101.387
32.28	16.4379
32.5	7.40203
32.72	3.74275
32.94	3.00475
33.16	8.27183
33.38	3.53333
33.6	3.75538
33.82	3.93848
34.04	3.97578
34.26	4.18542
34.48	4.1928
34.7	3.48754
34.92	3.52223
35.14	9.60955
35.36	4.66748
35.58	0.633508
35.8	3.72544
36.02	1.77659
36.24	5.9073
36.46	2.9086
36.68	3.79681
36.9	1.74386
37.12	6.67386
37.34	0.748432
37.56	3.61829
37.78	2.61128
38	2.69007
38.22	1.70152
38.44	3.73064
38.66	2.66868
38.88	2.75063
39.1	1.77337
39.32	2.93276
39.54	5.89817
39.76	0.137541
39.98	4.86946
40.2	7.89542
40.42	6.84851
40.64	0.908995
40.86	4.22863
41.08	6.32015
41.3	5.40259
41.52	2.50062
41.74	9.49534
41.96	3.657
42.18	4.70325
42.4	4.64802
42.62	3.55957
42.84	7.50674
43.06	0.405586
43.28	1.1113
43.5	3.88011
43.72	3.59741
43.94	4.07389
44.16	6.43565
44.38	4.81542
44.6	3.2637
44.82	1.16596
45.04	4.4548
45.26	11.0547
45.48	26.7067
45.7	183.299
45.92	146.73
46.14	23.8504
46.36	14.315
46.58	3.82825
46.8	11.3276
47.02	5.74283
47.24	0.118518
47.46	1.46101
47.68	1.83142
47.9	1.02363
48.12	3.49981
48.34	2.20375
48.56	3.3174
48.78	2.18711
49	4.06533
49.22	8.08284
49.44	4.21507
49.66	5.49061
49.88	5.53599
50.1	5.63304
50.32	5.85083
50.54	3.83863
50.76	4.9088
50.98	4.04538
51.2	1.01745
51.42	1.04099
51.64	4.89505
51.86	2.67613
52.08	1.34195
52.3	3.14685
52.52	2.70401
52.74	0.137681
52.96	0.457952
53.18	0.860469
53.4	6.28802
53.62	6.8671
53.84	19.4829
54.06	67.1753
54.28	163.142
54.5	83.1524
54.72	20.2257
54.94	13.3871
55.16	7.82226
55.38	4.01924
55.6	0.769427
55.82	5.44355
56.04	0.662362
56.26	1.02959
56.48	5.12777
56.7	29.2035
56.92	42.2748
57.14	25.3827
57.36	12.5747
57.58	0.350646
57.8	0.633499
58.02	1.65667
58.24	2.94599
58.46	4.3628
58.68	4.6247
58.9	4.87559
59.12	4.98822
59.34	5.05145
59.56	4.25528
59.78	7.45856
60	5.50356
60.22	1.13923
60.44	7.22052
60.66	0.697433
60.88	2.23269
61.1	1.16687
61.32	4.14648
61.54	3.30787
61.76	7.40637
61.98	2.30191
62.2	1.21631
62.42	4.28544
62.64	10.3456
62.86	4.43677
63.08	3.4079
63.3	3.49579
63.52	0.484042
63.74	0.566869
63.96	2.62008
64.18	0.535386
64.4	1.61982
64.62	5.59313
64.84	0.607599
65.06	7.57415
65.28	1.35989
65.5	3.2145
65.72	1.94178
65.94	7.782
66.16	4.50424
66.38	8.2078
66.6	13.1835
66.82	21.9994
67.04	5.02161
67.26	4.99309
67.48	0.020161
67.7	2.32297
67.92	5.50155
68.14	2.79804
68.36	4.04552
68.58	3.18628
68.8	2.37148
69.02	1.40543
69.24	3.48404
69.46	5.2948
69.68	6.30086
69.9	4.3031
70.12	1.22599
70.34	0.079221
70.56	4.16314
70.78	1.02643
71	0.92447
71.22	3.00399
71.44	0.014455
71.66	4.79188
71.88	1.6024
72.1	1.2939
72.32	3.82793
72.54	2.39489
72.76	4.00224
72.98	2.50021
73.2	13.1607
73.42	35.1361
73.64	46.2055
73.86	32.7725
74.08	27.7788
74.3	5.5656
74.52	7.47461
74.74	0.592123
74.96	1.31431
75.18	3.25538
75.4	1.35508
75.62	26.4047
75.84	31.3342
76.06	17.9565
76.28	14.2953
76.5	8.51733
76.72	3.29567
76.94	0.852939
77.16	5.29705
77.38	0.164314
77.6	3.34794
77.82	1.27025
78.04	3.20669
78.26	4.51283
78.48	6.73703
78.7	0.735756
78.92	6.52582
79.14	2.35316
79.36	7.31447
79.58	2.27456
79.8	6.17397
80.02	0.136353
80.24	6.08198
80.46	2.21221
80.68	2.11603
80.9	0.095228
81.12	5.12058
81.34	7.20268
81.56	1.26426
81.78	1.45464
82	1.3442
82.22	6.30606
82.44	0.908424
82.66	1.91331
82.88	4.33012
83.1	1.93287
83.32	2.502
83.54	4.06881
83.76	3.58374
83.98	0.125189
84.2	10.5131
84.42	19.2305
84.64	23.3071
84.86	32.2961
85.08	13.4306
85.3	9.73123
85.52	4.27771
85.74	8.69214
85.96	3.12544
86.18	0.704457
86.4	3.11653
86.62	3.49188
86.84	4.84195
87.06	2.95473
87.28	6.28774
87.5	1.34475
87.72	2.25811
87.94	2.34416
88.16	2.38144
88.38	4.41413
88.6	3.3445
88.82	5.34938
89.04	7.4211
89.26	5.30363
89.48	4.44023
89.7	2.28194
89.92	5.80802
