Measurement: Powder, Xray Data XY Processed
Mineral: Thortveitite
Rruff sample: R060360
Ideal chemistry: Sc^3+^_2_Si_2_O_7_
Locality: Rossa, near Evje, southern Norway
Source: Michael Scott
Description: Gray transparent prismatic crystal
Diffraction sample description: Single crystal, powder profile is calculated
Measured chemistry: (Sc_1.44_Y_0.30_Zr_0.07_Fe^3+^_0.08_Mn_0.06_Yb_0.05_)_Σ=2_(Si_1.99_Al_0.01_)_Σ=2_O_7_
Cell parameters: a: 6.601(5) b: 8.544(8) c: 4.698(4) alpha: 90 beta: 102.61(2) gamma: 90 volume: 258.6(2) crystal system: monoclinic
x	intensity
5	0
5.3	0
5.6	0
5.9	0
6.2	0
6.5	0
6.8	0
7.1	0
7.4	0
7.7	0
8	0
8.3	0
8.6	0
8.9	0
9.2	0
9.5	0
9.8	0
10.1	0
10.4	0
10.7	0
11	0
11.3	0
11.6	0
11.9	0
12.2	0
12.5	0
12.8	0
13.1	0
13.4	0
13.7	0
14	0
14.3	0
14.6	0
14.9	0
15.2	0
15.5	0
15.8	0
16.1	0
16.4	0
16.7	0
17	0
17.3	9.587
17.6	0
17.9	0
18.2	0
18.5	0
18.8	0
19.1	0
19.4	23.337
19.7	0
20	0
20.3	0
20.6	0
20.9	0.022
21.2	0
21.5	0
21.8	0
22.1	0
22.4	0
22.7	0
23	0
23.3	0
23.6	2.583
23.9	0
24.2	0
24.5	0
24.8	0
25.1	0
25.4	0
25.7	0
26	0
26.3	0
26.6	0
26.9	0
27.2	0
27.5	0
27.8	0.195
28.1	0.027
28.4	0.05
28.7	0.79
29	0
29.3	0
29.6	0
29.9	0
30.2	94.803
30.5	0
30.8	0
31.1	0
31.4	0
31.7	0
32	0
32.3	0
32.6	0
32.9	0
33.2	0
33.5	0
33.8	0
34.1	0
34.4	35.902
34.7	0
35	3.949
35.3	0
35.6	0
35.9	0
36.2	0
36.5	0
36.8	0
37.1	0.141
37.4	6.308
37.7	0
38	0
38.3	1.054
38.6	0
38.9	0
39.2	0.642
39.5	0.001
39.8	0
40.1	0.837
40.4	0
40.7	0
41	0
41.3	32.361
41.6	0
41.9	0
42.2	0.342
42.5	0.006
42.8	0
43.1	14.361
43.4	3.625
43.7	11.952
44	0
44.3	0
44.6	0
44.9	1.829
45.2	0
45.5	0
45.8	0
46.1	0.166
46.4	0
46.7	0
47	1.424
47.3	0
47.6	0
47.9	0
48.2	0.037
48.5	4.635
48.8	0
49.1	0
49.4	0
49.7	0
50	0
50.3	0
50.6	4.952
50.9	0.001
51.2	0.041
51.5	0.016
51.8	0.091
52.1	0.054
52.4	0
52.7	0.117
53	2.647
53.3	0.287
53.6	2.869
53.9	8.706
54.2	0
54.5	0
54.8	0
55.1	0
55.4	0
55.7	14.443
56	0
56.3	0.193
56.6	0
56.9	0
57.2	4.371
57.5	0
57.8	0.093
58.1	0
58.4	6.593
58.7	0
59	0.481
59.3	0.135
59.6	0
59.9	0
60.2	0.064
60.5	2.704
60.8	8.992
61.1	2.715
61.4	0.292
61.7	2.007
62	1.066
62.3	0
62.6	0
62.9	0.416
63.2	0
63.5	0
63.8	0
64.1	0
64.4	0
64.7	1.602
65	0.062
65.3	4.842
65.6	1.754
65.9	0
66.2	0
66.5	0
66.8	3.186
67.1	0.002
67.4	0
67.7	0
68	4.852
68.3	12.107
68.6	0.177
68.9	0
69.2	0.008
69.5	3.235
69.8	0.003
70.1	0
70.4	2.221
70.7	0.316
71	0.001
71.3	0
71.6	0
71.9	0
72.2	0.027
72.5	0.682
72.8	0.217
73.1	0.001
73.4	0
73.7	0.151
74	1.859
74.3	0.113
74.6	0.211
74.9	0.018
75.2	0
75.5	0
75.8	0.354
76.1	0.064
76.4	0
76.7	0.017
77	0.017
77.3	0.095
77.6	1.066
77.9	0.262
78.2	0.443
78.5	0.003
78.8	0.213
79.1	0.241
79.4	0.043
79.7	1.241
80	0.322
80.3	0.03
80.6	0
80.9	0
81.2	0.003
81.5	0
81.8	0.005
82.1	0.892
82.4	0.799
82.7	0.006
83	3.177
83.3	0.49
83.6	0.737
83.9	0.379
84.2	0.064
84.5	0.755
84.8	0.067
85.1	0.039
85.4	0
85.7	0
86	0
86.3	0
86.6	0.051
86.9	0.044
87.2	0
87.5	0
87.8	0
88.1	0.296
88.4	0.316
88.7	0.029
89	0.005
89.3	0.007
89.6	0.167
89.9	0.228
