Measurement: Powder, Xray Data XY Processed
Mineral: Tiemannite
Rruff sample: R050550
Ideal chemistry: Hg^2+^Se^2-^
Locality: Queretaro, Mexico
Source: Dave Bunk Minerals
Description: Grey semi-metallic fragments
Diffraction sample description: Powder
Measured chemistry: Hg_1.00_(Se_0.81_S_0.19_)
Cell parameters: a: 6.0143(2) b: 6.0143(2) c: 6.0143(2) alpha: 90 beta: 90 gamma: 90 volume: 217.55(3) crystal system: cubic
x	intensity
5	0
5.22	16.4073
5.44	15.5251
5.66	15.0714
5.88	13.6784
6.1	11.806
6.32	14.8227
6.54	13.2038
6.76	2.81349
6.98	3.58124
7.2	3.98034
7.42	8.29657
7.64	3.44026
7.86	1.55383
8.08	4.53917
8.3	1.43112
8.52	5.86592
8.74	6.76232
8.96	10.9446
9.18	5.95484
9.4	5.60719
9.62	8.55582
9.84	6.48621
10.06	8.51904
10.28	2.3237
10.5	5.56628
10.72	0.395049
10.94	5.73722
11.16	10.2768
11.38	10.0619
11.6	10.155
11.82	7.4771
12.04	4.53993
12.26	3.60109
12.48	4.62823
12.7	2.53559
12.92	2.54082
13.14	2.56543
13.36	2.54782
13.58	6.47782
13.8	1.57503
14.02	4.459
14.24	7.23758
14.46	18.3039
14.68	8.5081
14.9	1.49387
15.12	5.43919
15.34	14.6361
15.56	8.87104
15.78	1.27219
16	12.1377
16.22	5.83011
16.44	5.56005
16.66	12.2167
16.88	4.84079
17.1	7.36613
17.32	5.13228
17.54	3.20736
17.76	0.821143
17.98	9.16036
18.2	5.22564
18.42	10.9663
18.64	5.75979
18.86	7.48406
19.08	7.19715
19.3	11.0228
19.52	6.78162
19.74	7.85303
19.96	5.23712
20.18	3.95305
20.4	6.88665
20.62	4.5916
20.84	5.44952
21.06	0.865176
21.28	4.00401
21.5	3.11418
21.72	3.13178
21.94	6.18693
22.16	10.221
22.38	7.98793
22.6	9.94579
22.82	10.9486
23.04	10.3521
23.26	13.2787
23.48	9.70285
23.7	2.01016
23.92	3.30026
24.14	6.51224
24.36	2.68324
24.58	0.728269
24.8	10.144
25.02	7.37271
25.24	11.6261
25.46	67.104
25.68	381.964
25.9	76.9687
26.12	21.7253
26.34	9.40508
26.56	2.85725
26.78	5.74031
27	4.72529
27.22	2.52773
27.44	1.59261
27.66	4.15312
27.88	6.19772
28.1	11.2802
28.32	11.2869
28.54	3.99009
28.76	9.81109
28.98	10.0681
29.2	6.14701
29.42	22.2551
29.64	41.5466
29.86	27.824
30.08	11.4776
30.3	13.0844
30.52	5.6216
30.74	12.2199
30.96	7.77895
31.18	10.2472
31.4	6.63716
31.62	3.86523
31.84	9.32644
32.06	5.50265
32.28	7.09785
32.5	11.9678
32.72	7.93467
32.94	7.01069
33.16	4.03451
33.38	3.95433
33.6	7.1919
33.82	9.96036
34.04	1.0096
34.26	11.9493
34.48	7.01454
34.7	7.21633
34.92	0.277206
35.14	5.33658
35.36	4.21401
35.58	12.0991
35.8	6.03674
36.02	10.137
36.24	1.21557
36.46	4.07643
36.68	4.10998
36.9	5.97733
37.12	1.03277
37.34	4.04633
37.56	4.15643
37.78	9.28375
38	6.77227
38.22	7.9022
38.44	3.92789
38.66	6.48304
38.88	15.5708
39.1	10.6729
39.32	4.63247
39.54	12.7266
39.76	5.48174
39.98	6.01084
40.2	5.5587
40.42	6.76926
40.64	3.82909
40.86	12.9085
41.08	8.40633
41.3	0.462586
41.52	6.4133
41.74	1.43983
41.96	16.4137
42.18	17.8917
42.4	101.737
42.62	110.835
42.84	43.7652
43.06	12.0961
43.28	4.90022
43.5	4.88114
43.72	1.58894
43.94	0.202463
44.16	5.08382
44.38	5.8961
44.6	3.4461
44.82	5.60184
45.04	7.48815
45.26	0.078389
45.48	2.14607
45.7	0.061952
45.92	6.05546
46.14	3.07961
46.36	3.11362
46.58	13.276
46.8	4.17696
47.02	11.564
47.24	10.9265
47.46	6.92429
47.68	11.7725
47.9	14.5555
48.12	7.92029
48.34	9.27371
48.56	7.55749
48.78	10.8743
49	10.0044
49.22	7.36747
49.44	12.2516
49.66	10.5715
49.88	14.1614
50.1	47.8537
50.32	94.4424
50.54	47.8737
50.76	10.6742
50.98	8.32846
51.2	1.10992
51.42	6.80187
51.64	2.52114
51.86	11.0658
52.08	0.624274
52.3	15.2528
52.52	6.67743
52.74	10.4593
52.96	13.6769
53.18	6.63946
53.4	3.80094
53.62	0.103666
53.84	5.3392
54.06	4.76766
54.28	0.986438
54.5	2.90289
54.72	8.20534
54.94	7.39088
55.16	6.71742
55.38	2.78483
55.6	0.916956
55.82	4.68863
56.04	6.78745
56.26	8.81935
56.48	9.54933
56.7	1.54149
56.92	4.49046
57.14	11.5617
57.36	7.75631
57.58	3.55085
57.8	3.41465
58.02	2.43228
58.24	7.47558
58.46	5.35651
58.68	4.57298
58.9	4.80412
59.12	0.956704
59.34	8.33109
59.56	8.2554
59.78	0.181721
60	4.61162
60.22	6.33553
60.44	2.03005
60.66	9.64808
60.88	4.33651
61.1	4.13871
61.32	11.6099
61.54	17.3681
61.76	8.18693
61.98	5.12508
62.2	5.3635
62.42	3.66557
62.64	7.84481
62.86	2.10168
63.08	0.698353
63.3	0.465841
63.52	2.33883
63.74	1.36014
63.96	4.47494
64.18	10.54
64.4	4.5662
64.62	4.51036
64.84	4.32756
65.06	3.4616
65.28	8.73317
65.5	0.068442
65.72	1.00293
65.94	1.84779
66.16	3.62975
66.38	10.3134
66.6	8.71253
66.82	6.25178
67.04	0.287783
67.26	11.2304
67.48	13.7104
67.7	21.799
67.92	19.7838
68.14	13.4619
68.36	8.73687
68.58	10.941
68.8	1.98135
69.02	4.14094
69.24	6.3444
69.46	8.62519
69.68	10.862
69.9	10.0388
70.12	13.6145
70.34	9.54957
70.56	7.05587
70.78	7.99868
71	0.035912
71.22	1.56889
71.44	0.368314
71.66	2.89188
71.88	1.00919
72.1	10.1364
72.32	4.36845
72.54	0.555503
72.76	10.7554
72.98	7.54386
73.2	2.42282
73.42	8.64853
73.64	5.52135
73.86	3.48713
74.08	2.43343
74.3	9.36325
74.52	14.6404
74.74	6.75829
74.96	7.51189
75.18	3.15317
75.4	5.01966
75.62	9.77957
75.84	3.20658
76.06	2.33269
76.28	7.96313
76.5	12.5194
76.72	8.02716
76.94	9.40842
77.16	13.8455
77.38	7.53606
77.6	16.3711
77.82	26.3294
78.04	14.5399
78.26	5.38998
78.48	6.61518
78.7	5.95904
78.92	3.50576
79.14	10.9392
79.36	6.60203
79.58	0.756174
79.8	10.1802
80.02	4.497
80.24	7.70542
80.46	3.51438
80.68	9.77263
80.9	0.13817
81.12	2.24122
81.34	7.14989
81.56	10.0823
81.78	3.98206
82	13.869
82.22	8.65371
82.44	4.46711
82.66	9.32047
82.88	4.23058
83.1	9.19681
83.32	16.1942
83.54	10.9587
83.76	15.9042
83.98	13.3839
84.2	11.4382
84.42	5.67016
84.64	3.98279
84.86	5.19719
85.08	6.3907
85.3	1.36124
85.52	0.780264
85.74	6.75892
85.96	4.91002
86.18	0.875306
86.4	5.7481
86.62	4.73544
86.84	5.77409
87.06	3.76113
87.28	5.94135
87.5	6.47274
87.72	9.46569
87.94	4.73239
88.16	6.03671
88.38	3.25638
88.6	4.6158
88.82	7.27488
89.04	6.64872
89.26	3.95872
89.48	8.72253
89.7	10.9689
89.92	7.35619
