Measurement: Powder, Xray Data XY Processed
Mineral: Tinaksite
Rruff sample: R060375
Ideal chemistry: K_2_NaCa_2_Ti^4+^Si_7_O_18_(OH)O
Locality: Chara River area, Murun Massif, northwest Aldan, Siberia, U.S.S.R.
Source: Michael Scott
Description: Tan colored long prismatic crystals embedded in purple charoite R060376
Diffraction sample description: Single crystal, powder profile is calculated
Cell parameters: a: 10.375(2) b: 12.165(2) c: 7.054(1) alpha: 90.824(9) beta: 99.23(1) gamma: 92.788(8) volume: 877.5(4) crystal system: triclinic
x	intensity
5	0
5.22	0
5.44	0
5.66	0
5.88	0
6.1	0
6.32	0
6.54	0
6.76	0
6.98	0
7.2	0.141
7.42	0
7.64	0
7.86	0
8.08	0
8.3	0
8.52	0.003
8.74	0.457
8.96	0
9.18	0
9.4	0
9.62	0
9.84	0
10.06	0
10.28	0
10.5	0
10.72	0
10.94	0.073
11.16	0
11.38	0
11.6	12.698
11.82	0
12.04	0
12.26	0
12.48	0
12.7	6.198
12.92	0
13.14	0
13.36	0
13.58	0
13.8	0
14.02	0
14.24	0.248
14.46	1.952
14.68	0.021
14.9	0.001
15.12	0
15.34	0
15.56	0
15.78	0
16	0.094
16.22	0
16.44	0.217
16.66	0.117
16.88	0
17.1	0
17.32	15.192
17.54	0
17.76	5.77
17.98	0
18.2	0
18.42	7.261
18.64	0
18.86	0
19.08	0.265
19.3	0.038
19.52	0.047
19.74	0.103
19.96	0
20.18	0.034
20.4	0.042
20.62	0.155
20.84	0.012
21.06	0
21.28	0.46
21.5	0.032
21.72	0.039
21.94	8.126
22.16	2.035
22.38	0
22.6	0.275
22.82	0
23.04	0
23.26	3.278
23.48	0
23.7	0
23.92	1.259
24.14	0.007
24.36	0.647
24.58	0.056
24.8	0.201
25.02	1.432
25.24	4.673
25.46	0.002
25.68	23.027
25.9	0
26.12	17.405
26.34	17.653
26.56	1.098
26.78	34.286
27	9.494
27.22	0.002
27.44	14.096
27.66	0.494
27.88	0.047
28.1	1.6
28.32	10.989
28.54	19.619
28.76	14.971
28.98	1.103
29.2	2.849
29.42	35.14
29.64	20.249
29.86	23.501
30.08	0.005
30.3	6.885
30.52	3.154
30.74	0.668
30.96	3.44
31.18	6.852
31.4	0.422
31.62	2.575
31.84	0.06
32.06	9.837
32.28	7.008
32.5	2.216
32.72	0.467
32.94	0.728
33.16	0.002
33.38	16.066
33.6	2.239
33.82	1.171
34.04	2.589
34.26	1.842
34.48	9.731
34.7	4.902
34.92	0
35.14	11.627
35.36	4.822
35.58	0.767
35.8	0.316
36.02	4.423
36.24	0.339
36.46	2.428
36.68	1.074
36.9	0.307
37.12	0.28
37.34	1.759
37.56	2.536
37.78	0.577
38	0.021
38.22	0
38.44	1.417
38.66	9.653
38.88	4.945
39.1	0.718
39.32	4.606
39.54	2.382
39.76	3.48
39.98	2.15
40.2	4.256
40.42	0.126
40.64	2.056
40.86	1.879
41.08	1.575
41.3	7.21
41.52	0.523
41.74	2.91
41.96	7.494
42.18	3.886
42.4	0
42.62	3.115
42.84	0.766
43.06	0.342
43.28	0.347
43.5	7.254
43.72	0
43.94	0.355
44.16	0.941
44.38	4.235
44.6	1.423
44.82	1.626
45.04	0.499
45.26	3.473
45.48	0.411
45.7	0.327
45.92	1.627
46.14	3.512
46.36	2.65
46.58	0.283
46.8	0.093
47.02	0.707
47.24	1.41
47.46	0.342
47.68	2.663
47.9	1.032
48.12	0.299
48.34	0.775
48.56	0.922
48.78	0.996
49	1.009
49.22	0.684
49.44	1.763
49.66	0.019
49.88	1.057
50.1	0.663
50.32	1.413
50.54	1.554
50.76	1.69
50.98	0.282
51.2	0.297
51.42	1.058
51.64	4.015
51.86	9.917
52.08	0.445
52.3	2.365
52.52	1.375
52.74	2.938
52.96	1.07
53.18	1.158
53.4	1.031
53.62	0.792
53.84	0.889
54.06	3.581
54.28	1.525
54.5	0.067
54.72	2.929
54.94	2.831
55.16	0.575
55.38	1.052
55.6	6.624
55.82	1.033
56.04	0.595
56.26	0.738
56.48	3.528
56.7	2.187
56.92	2.568
57.14	3.429
57.36	2.828
57.58	1.458
57.8	2.18
58.02	2.066
58.24	4.854
58.46	0.225
58.68	0.826
58.9	4.18
59.12	2.804
59.34	2.284
59.56	2.515
59.78	2.747
60	1.67
60.22	3.482
60.44	1.772
60.66	3.448
60.88	5.265
61.1	4.754
61.32	3.123
61.54	3.016
61.76	0.45
61.98	0.469
62.2	0.471
62.42	0.719
62.64	0.267
62.86	2.009
63.08	1.916
63.3	1.722
63.52	0.692
63.74	3.969
63.96	1.685
64.18	1.531
64.4	1.84
64.62	3.465
64.84	4.792
65.06	1.383
65.28	3.084
65.5	0.609
65.72	1.238
65.94	1.155
66.16	0.685
66.38	2.213
66.6	5.465
66.82	1.737
67.04	1.638
67.26	0.53
67.48	1.152
67.7	0.609
67.92	0.559
68.14	1.302
68.36	2.164
68.58	0.782
68.8	1.711
69.02	1.438
69.24	0.245
69.46	0.143
69.68	0.161
69.9	0.255
70.12	0.276
70.34	0.426
70.56	1.484
70.78	1.064
71	0.783
71.22	0.976
71.44	0.615
71.66	0.378
71.88	0.388
72.1	0.128
72.32	0.961
72.54	0.471
72.76	1.109
72.98	0.818
73.2	1.298
73.42	1.11
73.64	0.479
73.86	0.254
74.08	0.863
74.3	1.769
74.52	2.277
74.74	1.11
74.96	0.63
75.18	0.425
75.4	0.875
75.62	1.989
75.84	0.891
76.06	0.924
76.28	1.552
76.5	0.715
76.72	0.133
76.94	0.787
77.16	0.666
77.38	0.464
77.6	0.725
77.82	0.356
78.04	0.484
78.26	1.093
78.48	0.493
78.7	1.218
78.92	1.024
79.14	1.044
79.36	0.421
79.58	0.419
79.8	0.928
80.02	1.482
80.24	2.255
80.46	1.427
80.68	0.993
80.9	0.508
81.12	0.585
81.34	0.248
81.56	0.014
81.78	0.365
82	1.087
82.22	0.547
82.44	0.935
82.66	0.751
82.88	0.885
83.1	0.514
83.32	0.697
83.54	0.911
83.76	0.834
83.98	0.771
84.2	0.533
84.42	0.315
84.64	0.629
84.86	1.599
85.08	1.039
85.3	0.471
85.52	0.339
85.74	0.841
85.96	1.232
86.18	1.017
86.4	0.881
86.62	1.431
86.84	1.777
87.06	1.074
87.28	1.048
87.5	0.537
87.72	0.994
87.94	0.478
88.16	0.757
88.38	0.732
88.6	1.281
88.82	0.499
89.04	1.322
89.26	0.546
89.48	0.142
89.7	0.976
89.92	1.154
