Measurement: Powder, Xray Data XY Processed
Mineral: Tincalconite
Rruff sample: R050660
Ideal chemistry: Na_2_B_4_O_5_(OH)_4_3H_2_O
Locality: Boron, Kern County, California, USA
Source: Marcus Origlieri
Description: Colorless pseudo-octahedral crystal
Diffraction sample description: Powder
Cell parameters: a: 11.1382(8) b: 11.1382(8) c: 21.1913(9) alpha: 90. beta: 90. gamma: 120. volume: 2276.7(3) crystal system: hexagonal
x	intensity
5	0
5.22	5.565
5.44	10.154
5.66	14.573
5.88	6.121
6.1	8.384
6.32	11.04
6.54	7.374
6.76	8.225
6.98	7.764
7.2	6.465
7.42	11.892
7.64	11.315
7.86	10.086
8.08	11.882
8.3	5.843
8.52	3.746
8.74	0.77
8.96	3.817
9.18	18.369
9.4	13.144
9.62	4.294
9.84	7.354
10.06	218.301
10.28	42.95
10.5	3.41
10.72	9.369
10.94	2.421
11.16	4.123
11.38	15.285
11.6	2.529
11.82	2.865
12.04	4.786
12.26	12.776
12.48	71.82
12.7	21.454
12.92	5.47
13.14	6.649
13.36	8.385
13.58	6.004
13.8	13.438
14.02	1.19
14.24	8.845
14.46	3.722
14.68	1.704
14.9	4.505
15.12	1.196
15.34	2.44
15.56	4.671
15.78	18.755
16	209.214
16.22	14.766
16.44	10.987
16.66	1.014
16.88	7.252
17.1	22.935
17.32	17.741
17.54	6.306
17.76	3.633
17.98	5.292
18.2	2.371
18.42	7.674
18.64	9.645
18.86	178.985
19.08	47.491
19.3	8.294
19.52	4.387
19.74	13.892
19.96	12.815
20.18	153.773
20.4	546.639
20.62	11.628
20.84	2.788
21.06	5.351
21.28	0.446
21.5	2.747
21.72	7.903
21.94	14.418
22.16	3.937
22.38	10.593
22.6	12.103
22.82	16.123
23.04	66.761
23.26	10.327
23.48	5.988
23.7	1.188
23.92	1.575
24.14	7.963
24.36	8.429
24.58	6.766
24.8	55.598
25.02	94.811
25.24	25.843
25.46	19.744
25.68	17.337
25.9	641.937
26.12	21.274
26.34	5.969
26.56	0.531
26.78	15.014
27	19.541
27.22	7.41
27.44	16.127
27.66	15.695
27.88	11.387
28.1	75.671
28.32	11.168
28.54	10.494
28.76	3.444
28.98	0.541
29.2	4.427
29.42	20.491
29.64	16.23
29.86	137.159
30.08	93.092
30.3	31.798
30.52	257.359
30.74	154.202
30.96	31.756
31.18	15.376
31.4	8.205
31.62	6.13
31.84	8.439
32.06	8.087
32.28	35.235
32.5	125.873
32.72	11.277
32.94	4.112
33.16	1.589
33.38	2.404
33.6	1.473
33.82	32.426
34.04	12.364
34.26	4.933
34.48	28.555
34.7	109.499
34.92	26.804
35.14	42.307
35.36	4.856
35.58	8.075
35.8	1.214
36.02	2.676
36.24	4.427
36.46	6.646
36.68	5.766
36.9	5.39
37.12	6.388
37.34	9.976
37.56	14.585
37.78	72.068
38	26.987
38.22	10.661
38.44	11.156
38.66	67.456
38.88	25.206
39.1	6.201
39.32	14.238
39.54	10.39
39.76	17.27
39.98	95.979
40.2	17.712
40.42	2.037
40.64	8.601
40.86	7.07
41.08	34.802
41.3	249.65
41.52	51.192
41.74	55.752
41.96	10.654
42.18	32.757
42.4	7.953
42.62	12.237
42.84	8.996
43.06	34.699
43.28	0.182
43.5	5.96
43.72	3.843
43.94	18.188
44.16	8.714
44.38	24.538
44.6	8.485
44.82	17.663
45.04	57.485
45.26	140.15
45.48	32.646
45.7	1.733
45.92	9.796
46.14	5.129
46.36	18.492
46.58	14.027
46.8	33.268
47.02	39.129
47.24	12.223
47.46	8.885
47.68	0.054
47.9	31.028
48.12	25.061
48.34	6.379
48.56	3.253
48.78	1.995
49	12.98
49.22	38.589
49.44	9.198
49.66	7.758
49.88	10.603
50.1	13.334
50.32	14.117
50.54	45.248
50.76	49.921
50.98	105.153
51.2	36.487
51.42	13.979
51.64	3.387
51.86	21.576
52.08	36.606
52.3	7.232
52.52	6.724
52.74	15.595
52.96	8.09
53.18	19.621
53.4	0.198
53.62	1.665
53.84	0.256
54.06	15.166
54.28	9.735
54.5	14.546
54.72	0.693
54.94	9.96
55.16	13.776
55.38	40.674
55.6	0.467
55.82	30.59
56.04	13.659
56.26	1.389
56.48	5.405
56.7	5.759
56.92	0.27
57.14	0.112
57.36	21.134
57.58	10.236
57.8	8.314
58.02	3.478
58.24	6.311
58.46	4.232
58.68	10.384
58.9	37.488
59.12	28.589
59.34	13.248
59.56	10.951
59.78	16.421
60	12.559
60.22	7.96
60.44	4.913
60.66	11.13
60.88	7.061
61.1	5.023
61.32	7.182
61.54	11.887
61.76	25.318
61.98	11.883
62.2	3.596
62.42	6.657
62.64	6.488
62.86	2.601
63.08	2.134
63.3	7.142
63.52	12.624
63.74	9.012
63.96	12.483
64.18	15.345
64.4	7.29
64.62	0.529
64.84	2.659
65.06	10.795
65.28	3.518
65.5	8.573
65.72	5.562
65.94	12.616
66.16	9.459
66.38	4.767
66.6	12.092
66.82	11.784
67.04	1.637
67.26	7.534
67.48	8.67
67.7	7.971
67.92	0.184
68.14	1.836
68.36	7.449
68.58	6.281
68.8	1.507
69.02	13.689
69.24	3.94
69.46	7.078
69.68	1.309
69.9	0.444
70.12	19.687
70.34	8.244
70.56	19.328
70.78	19.552
71	16.771
71.22	1.314
71.44	1.062
71.66	5.212
71.88	9.256
72.1	6.13
72.32	1.022
72.54	8.862
72.76	2.579
72.98	2.508
73.2	16.403
73.42	8.367
73.64	0.406
73.86	6.297
74.08	8.14
74.3	10.413
74.52	6.472
74.74	11.446
74.96	8.646
75.18	2.91
75.4	5.029
75.62	5.075
75.84	3.181
76.06	5.47
76.28	12.473
76.5	16.397
76.72	13.15
76.94	4.141
77.16	3.044
77.38	4.852
77.6	2.66
77.82	3.681
78.04	8.726
78.26	8.771
78.48	1.008
78.7	6.74
78.92	7.697
79.14	0.654
79.36	6.653
79.58	11.703
79.8	11.821
80.02	11.544
80.24	7.715
80.46	11.449
80.68	7.023
80.9	20.437
81.12	11.175
81.34	1.999
81.56	0.042
81.78	0.953
82	6.805
82.22	36.534
82.44	29.84
82.66	2.164
82.88	8.39
83.1	13.817
83.32	9.316
83.54	11.942
83.76	1.532
83.98	8.839
84.2	10.231
84.42	4.454
84.64	11.703
84.86	7.667
85.08	18.61
85.3	2.665
85.52	2.228
85.74	11.301
85.96	8.035
86.18	2.722
86.4	0.174
86.62	0.292
86.84	1.262
87.06	4.15
87.28	4.258
87.5	8.303
87.72	4.369
87.94	3.339
88.16	2.654
88.38	3.483
88.6	0.601
88.82	6.681
89.04	0.95
89.26	7.636
89.48	2.876
89.7	19.066
89.92	13.154
