Measurement: Powder, Xray Data XY Processed
Mineral: Tinticite
Rruff sample: R070682
Ideal chemistry: Fe^3+^_3_(PO_4_)_2_(OH)_3_3H_2_O
Locality: Tintic Standard mine, East Tintic District, East Tintic Mountainsts, Utah County, Utah, USA
Source: Michael Scott
Description: Clay-like white fine-grained massive, associated with jarosite, from type find
Diffraction sample description: Powder
Measured chemistry: (Fe^3+^_5.06_Al_0.04_)_Σ=5.09_((P_0.825_S_0.175_)_Σ=1_O_4_)_4_(OH)_4_·6.96H_2_O; OH estimated by charge balance; H_2_O by difference
Cell parameters: a: 7.954(2) b: 9.987(2) c: 7.644(4) alpha: 103.84(3) beta: 115.86(3) gamma: 67.91(2) volume: 504.3(2) crystal system: triclinic
x	intensity
5	0
5.22	2.83664
5.44	2.16692
5.66	28.5727
5.88	42.959
6.1	18.833
6.32	19.6869
6.54	26.869
6.76	21.1882
6.98	1.04086
7.2	19.241
7.42	16.7717
7.64	21.3051
7.86	42.1204
8.08	6.4193
8.3	24.6356
8.52	46.6397
8.74	24.5747
8.96	26.4434
9.18	42.1556
9.4	38.7309
9.62	24.4686
9.84	25.9544
10.06	8.20551
10.28	24.2955
10.5	16.9105
10.72	39.3964
10.94	49.2683
11.16	38.5352
11.38	24.3103
11.6	40.5701
11.82	8.7274
12.04	41.7789
12.26	20.1679
12.48	17.1085
12.7	16.384
12.92	86.6824
13.14	25.4524
13.36	18.8891
13.58	57.2898
13.8	7.11791
14.02	31.4537
14.24	1.65436
14.46	31.9914
14.68	32.8108
14.9	27.4712
15.12	38.4997
15.34	88.5698
15.56	27.162
15.78	25.8192
16	15.2751
16.22	12.6547
16.44	29.6
16.66	1.26045
16.88	10.0264
17.1	36.5673
17.32	30.9796
17.54	21.0938
17.76	7.01303
17.98	22.6449
18.2	27.1023
18.42	9.83629
18.64	40.5758
18.86	62.6063
19.08	3.03258
19.3	103.073
19.52	26.1195
19.74	19.7057
19.96	13.3849
20.18	36.4615
20.4	28.0494
20.62	37.9564
20.84	41.0179
21.06	11.1322
21.28	34.7749
21.5	49.131
21.72	23.4401
21.94	3.14143
22.16	10.3908
22.38	34.9657
22.6	116.292
22.82	0.493835
23.04	4.53612
23.26	23.2238
23.48	27.9525
23.7	13.5183
23.92	32.4564
24.14	26.0377
24.36	30.3007
24.58	7.58373
24.8	3.14868
25.02	9.62013
25.24	9.81268
25.46	23.4799
25.68	23.242
25.9	14.1936
26.12	2.29143
26.34	34.7578
26.56	10.6292
26.78	56.0087
27	92.2856
27.22	60.152
27.44	30.7681
27.66	14.1048
27.88	11.2244
28.1	50.0427
28.32	3.76509
28.54	35.6769
28.76	28.7675
28.98	41.259
29.2	26.7729
29.42	50.1474
29.64	38.1823
29.86	34.8281
30.08	83.8742
30.3	43.4703
30.52	7.54401
30.74	21.4248
30.96	21.5068
31.18	25.1959
31.4	20.7544
31.62	0.040802
31.84	30.7466
32.06	14.0219
32.28	16.8705
32.5	4.78825
32.72	41.5476
32.94	14.6935
33.16	15.7228
33.38	0.157028
33.6	25.2457
33.82	22.6
34.04	11.9107
34.26	17.1559
34.48	4.16916
34.7	12.4543
34.92	12.3625
35.14	24.6736
35.36	32.3876
35.58	32.6867
35.8	28.5852
36.02	14.0918
36.24	11.8942
36.46	33.2986
36.68	25.345
36.9	37.326
37.12	27.1482
37.34	28.4713
37.56	22.1985
37.78	16.2351
38	23.3795
38.22	22.4431
38.44	4.35407
38.66	8.53029
38.88	10.5112
39.1	6.39283
39.32	11.2883
39.54	15.9606
39.76	15.9609
39.98	15.9579
40.2	29.1078
40.42	1.88033
40.64	16.0923
40.86	36.4681
41.08	9.75114
41.3	0.784569
41.52	22.7541
41.74	8.84596
41.96	3.33339
42.18	3.3308
42.4	37.0381
42.62	34.3049
42.84	6.60799
43.06	41.6523
43.28	56.7741
43.5	6.58009
43.72	13.7236
43.94	31.7966
44.16	11.3072
44.38	11.6276
44.6	17.1102
44.82	3.06419
45.04	10.9661
45.26	31.4227
45.48	19.9484
45.7	26.6183
45.92	7.32921
46.14	11.4996
46.36	24.2946
46.58	29.3277
46.8	0.814117
47.02	17.5219
47.24	17.6439
47.46	11.5391
47.68	8.38349
47.9	14.7189
48.12	40.6044
48.34	3.59435
48.56	21.8924
48.78	3.57418
49	27.809
49.22	4.58591
49.44	11.0695
49.66	14.4322
49.88	13.3579
50.1	0.475609
50.32	6.71483
50.54	20.5754
50.76	33.0965
50.98	8.9297
51.2	25.1939
51.42	41.4629
51.64	19.647
51.86	6.40288
52.08	12.2118
52.3	26.1657
52.52	29.658
52.74	4.34396
52.96	2.99898
53.18	17.0447
53.4	20.013
53.62	20.474
53.84	29.4577
54.06	2.40487
54.28	22.3295
54.5	6.00707
54.72	14.2697
54.94	11.051
55.16	12.8164
55.38	24.266
55.6	14.2698
55.82	6.81019
56.04	21.5072
56.26	6.68802
56.48	18.8927
56.7	29.8859
56.92	28.925
57.14	23.1118
57.36	16.3173
57.58	14.8311
57.8	18.195
58.02	24.2036
58.24	25.9707
58.46	6.29937
58.68	7.58566
58.9	18.0129
59.12	22.5383
59.34	12.1706
59.56	33.9995
59.78	10.0982
60	35.1439
60.22	2.9912
60.44	40.3048
60.66	23.5419
60.88	32.0137
61.1	23.046
61.32	7.51958
61.54	29.2619
61.76	1.09176
61.98	11.7168
62.2	22.9428
62.42	28.5612
62.64	8.6351
62.86	26.5421
63.08	7.55393
63.3	5.11124
63.52	7.84608
63.74	15.7549
63.96	15.0489
64.18	21.4289
64.4	26.0153
64.62	23.5833
64.84	32.0554
65.06	21.5363
65.28	28.9881
65.5	24.6186
65.72	30.023
65.94	38.6495
66.16	22.347
66.38	22.739
66.6	12.4295
66.82	24.3035
67.04	21.8683
67.26	15.022
67.48	15.0802
67.7	22.7694
67.92	19.7663
68.14	11.0869
68.36	17.5938
68.58	20.237
68.8	8.60198
69.02	27.6957
69.24	18.2641
69.46	4.05852
69.68	12.2844
69.9	26.615
70.12	21.3854
70.34	26.4355
70.56	6.20698
70.78	15.7711
71	28.7795
71.22	29.9667
71.44	14.0495
71.66	14.8745
71.88	29.092
72.1	25.5073
72.32	16.4638
72.54	12.8367
72.76	19.0274
72.98	25.3695
73.2	5.75149
73.42	15.8727
73.64	2.06188
73.86	11.3482
74.08	12.2082
74.3	10.5229
74.52	8.42124
74.74	7.99771
74.96	11.8411
75.18	28.7407
75.4	29.5697
75.62	16.7783
75.84	26.7167
76.06	24.9095
76.28	4.95034
76.5	1.21684
76.72	7.23303
76.94	7.52921
77.16	0.892799
77.38	12.9666
77.6	7.64506
77.82	35.2073
78.04	26.438
78.26	9.20184
78.48	14.6443
78.7	3.59547
78.92	13.2917
79.14	24.9983
79.36	16.5491
79.58	12.5541
79.8	16.8266
80.02	15.5964
80.24	0.636612
80.46	9.17019
80.68	30.7344
80.9	9.84438
81.12	18.3546
81.34	31.3063
81.56	8.11534
81.78	6.19639
82	6.49046
82.22	33.54
82.44	14.3078
82.66	11.8972
82.88	16.0881
83.1	9.33546
83.32	12.618
83.54	11.3866
83.76	19.5567
83.98	20.798
84.2	8.76025
84.42	16.1996
84.64	19.6162
84.86	21.7319
85.08	7.54247
85.3	23.0135
85.52	22.9886
85.74	11.7334
85.96	20.6286
86.18	0.155045
86.4	15.1682
86.62	9.45184
86.84	14.7348
87.06	22.9768
87.28	9.50754
87.5	10.0531
87.72	14.336
87.94	4.06671
88.16	7.70953
88.38	6.47148
88.6	13.6417
88.82	9.97333
89.04	25.4907
89.26	26.723
89.48	7.81419
89.7	9.27258
89.92	2.4714
