Measurement: Powder, Xray Data XY Processed
Mineral: Tinzenite
Rruff sample: R050251
Ideal chemistry: Ca_2_Mn^2+^_4_Al_4_[B_2_Si_8_O_30_](OH)_2_
Locality: Tinzen, Sursass Valley, Switzerland
Source: Marcus Origlieri
Description: Aggregate of yellowish orange prismatic crystals associated with quartz
Diffraction sample description: Powder
Measured chemistry: (Ca_2.96_Mn_2.84_Fe^2+^_0.14_Mg_0.06_)_Î£=6_Al_4.00_[B_2.00_Si_8.00_O_30_](OH)_2_; H_2_O assumed ideal from stoichiometry; B_2_O_3_ estimated by difference
Cell parameters: a: 7.1636(8) b: 9.137(2) c: 8.964(2) alpha: 91.88(2) beta: 98.65(1) gamma: 77.15(1) volume: 565.5(1) crystal system: triclinic
x	intensity
5	0
5.22	14.5075
5.44	8.55063
5.66	0.861019
5.88	14.9684
6.1	21.9659
6.32	13.2024
6.54	15.9394
6.76	7.7606
6.98	17.9245
7.2	18.772
7.42	0.170238
7.64	8.57852
7.86	4.4756
8.08	6.19073
8.3	34.3867
8.52	14.0432
8.74	16.6237
8.96	13.2766
9.18	4.8031
9.4	6.49055
9.62	14.8125
9.84	17.7712
10.06	7.34866
10.28	5.81695
10.5	13.2709
10.72	8.24766
10.94	1.53061
11.16	1.09877
11.38	3.01078
11.6	0.608898
11.82	5.57143
12.04	15.5536
12.26	3.74328
12.48	16.4112
12.7	13.2045
12.92	15.88
13.14	12.7964
13.36	11.8776
13.58	2.72641
13.8	4.68257
14.02	7.17303
14.24	9.55342
14.46	2.53544
14.68	4.68755
14.9	12.3419
15.12	19.4055
15.34	1.27436
15.56	4.61015
15.78	9.69233
16	4.8364
16.22	15.9004
16.44	14.0529
16.66	3.6944
16.88	2.55802
17.1	7.11599
17.32	16.9967
17.54	16.0804
17.76	5.67652
17.98	9.4389
18.2	0.709984
18.42	14.5234
18.64	16.3821
18.86	13.2814
19.08	5.16877
19.3	0.617987
19.52	21.4562
19.74	9.15111
19.96	0.09465
20.18	1.96629
20.4	13.8558
20.62	15.8696
20.84	44.429
21.06	15.6167
21.28	5.75899
21.5	4.87582
21.72	8.90433
21.94	6.99572
22.16	13.2592
22.38	11.304
22.6	9.15033
22.82	4.67938
23.04	8.32685
23.26	5.7587
23.48	16.4669
23.7	0.132423
23.92	5.50264
24.14	9.16969
24.36	31.3859
24.58	3.67044
24.8	2.9472
25.02	8.34679
25.24	9.18876
25.46	8.45335
25.68	6.79698
25.9	34.932
26.12	26.6323
26.34	15.6047
26.56	20.3018
26.78	25.482
27	0.76598
27.22	22.4034
27.44	3.35941
27.66	10.3117
27.88	10.3715
28.1	8.46567
28.32	43.1284
28.54	41.3033
28.76	7.08752
28.98	7.79095
29.2	16.2399
29.42	6.02984
29.64	12.6397
29.86	10.5357
30.08	36.2373
30.3	10.4765
30.52	3.6895
30.74	14.6674
30.96	12.4797
31.18	34.5496
31.4	12.7146
31.62	15.8335
31.84	156.389
32.06	20.3959
32.28	28.2377
32.5	18.0426
32.72	8.0965
32.94	5.68038
33.16	8.16952
33.38	11.2678
33.6	9.77737
33.82	6.04376
34.04	9.19979
34.26	4.52097
34.48	10.6214
34.7	21.0866
34.92	21.2875
35.14	20.3978
35.36	30.0986
35.58	15.0177
35.8	12.5683
36.02	6.54042
36.24	3.49719
36.46	18.5453
36.68	11.5766
36.9	13.653
37.12	22.7011
37.34	11.7353
37.56	10.5357
37.78	23.964
38	12.3622
38.22	19.6616
38.44	10.7498
38.66	20.9486
38.88	13.1985
39.1	2.32303
39.32	13.6472
39.54	0.189285
39.76	7.56079
39.98	11.0253
40.2	3.46395
40.42	10.5319
40.64	14.9137
40.86	10.3264
41.08	2.87194
41.3	11.0335
41.52	10.815
41.74	30.1103
41.96	26.57
42.18	10.1502
42.4	3.65972
42.62	5.30429
42.84	15.9597
43.06	8.49611
43.28	10.0771
43.5	11.8922
43.72	7.97357
43.94	23.2548
44.16	12.7897
44.38	11.1518
44.6	15.9862
44.82	9.70093
45.04	12.4592
45.26	27.4516
45.48	18.517
45.7	10.4304
45.92	11.2044
46.14	1.49458
46.36	2.59592
46.58	1.97571
46.8	8.55101
47.02	16.1072
47.24	11.7502
47.46	13.145
47.68	3.38612
47.9	4.01833
48.12	6.29017
48.34	19.305
48.56	7.74104
48.78	6.33936
49	13.6118
49.22	31.2184
49.44	13.7401
49.66	10.9363
49.88	7.78863
50.1	11.7385
50.32	14.98
50.54	10.6702
50.76	9.6215
50.98	0.640244
51.2	15.2729
51.42	7.26504
51.64	19.1341
51.86	9.98834
52.08	6.5857
52.3	12.7018
52.52	16.6747
52.74	8.59362
52.96	14.8425
53.18	13.7693
53.4	15.3805
53.62	9.67015
53.84	10.3935
54.06	16.3533
54.28	5.27064
54.5	3.99946
54.72	16.4812
54.94	13.1842
55.16	7.56049
55.38	12.9424
55.6	16.3936
55.82	10.7566
56.04	3.25389
56.26	6.60837
56.48	22.6998
56.7	0.755192
56.92	3.38992
57.14	7.68113
57.36	0.982082
57.58	8.59804
57.8	8.90698
58.02	0.287384
58.24	10.6083
58.46	9.97523
58.68	4.82579
58.9	6.97378
59.12	0.324156
59.34	5.27607
59.56	7.84843
59.78	6.69782
60	25.6893
60.22	3.67876
60.44	0.993464
60.66	17.9112
60.88	9.98144
61.1	9.29498
61.32	16.189
61.54	14.9145
61.76	4.92021
61.98	4.44698
62.2	4.52121
62.42	11.2412
62.64	6.2478
62.86	20.2537
63.08	0.363165
63.3	6.95495
63.52	11.0587
63.74	14.1499
63.96	11.551
64.18	9.59767
64.4	14.0616
64.62	2.04803
64.84	9.66599
65.06	5.04819
65.28	10.2533
65.5	2.2947
65.72	12.3115
65.94	1.26232
66.16	9.33453
66.38	3.39496
66.6	16.475
66.82	10.504
67.04	2.50569
67.26	13.2989
67.48	11.5708
67.7	5.56605
67.92	3.03562
68.14	8.03657
68.36	27.9516
68.58	20.9538
68.8	4.2916
69.02	5.17598
69.24	11.7024
69.46	10.6175
69.68	14.4849
69.9	4.40409
70.12	6.2557
70.34	1.33404
70.56	7.11925
70.78	14.3807
71	14.8206
71.22	9.14867
71.44	3.89132
71.66	14.1443
71.88	3.42802
72.1	12.9098
72.32	10.2759
72.54	14.4948
72.76	8.08397
72.98	5.4897
73.2	4.34265
73.42	10.1707
73.64	12.1257
73.86	7.63881
74.08	14.048
74.3	12.9643
74.52	0.926085
74.74	7.5263
74.96	19.6209
75.18	0.32843
75.4	17.6807
75.62	8.81098
75.84	14.0477
76.06	5.3843
76.28	2.36591
76.5	3.01749
76.72	13.2764
76.94	0.064135
77.16	4.23431
77.38	6.39527
77.6	23.7804
77.82	2.26667
78.04	16.8777
78.26	0.452328
78.48	1.43499
78.7	8.47467
78.92	9.40579
79.14	9.17791
79.36	6.76635
79.58	12.6885
79.8	3.6884
80.02	6.40827
80.24	6.47066
80.46	15.4607
80.68	21.6332
80.9	8.64323
81.12	8.96647
81.34	3.01609
81.56	13.0462
81.78	9.79147
82	12.8648
82.22	8.73272
82.44	5.96351
82.66	6.58205
82.88	7.52875
83.1	11.3619
83.32	3.75387
83.54	7.45554
83.76	4.48901
83.98	1.40991
84.2	9.2532
84.42	9.1516
84.64	5.32319
84.86	6.35546
85.08	3.00028
85.3	18.9661
85.52	3.00916
85.74	16.6362
85.96	11.6534
86.18	7.71427
86.4	10.8193
86.62	3.82222
86.84	4.85984
87.06	10.2637
87.28	1.45159
87.5	10.5633
87.72	5.63823
87.94	6.95944
88.16	8.14312
88.38	9.24539
88.6	7.14004
88.82	14.8449
89.04	7.05948
89.26	16.9337
89.48	6.2335
89.7	2.78802
89.92	11.4007
