Measurement: Powder, Xray Data XY Processed
Mineral: Titanite
Rruff sample: R050039
Ideal chemistry: CaTi^4+^SiO_5_
Locality: Kingman, Arizona, USA
Source: University of Arizona Mineral Museum
Description: Black fragment from a single crystal
Diffraction sample description: Powder
Measured chemistry: (Ca_0.95_Y_0.05_)(Ti_0.85_Al_0.10_Fe^3+^_0.06_)Si_1.00_O_4_(O_0.93_F_0.07_)
Cell parameters: a: 7.0510(9) b: 8.7478(7) c: 6.5810(7) alpha: 90. beta: 113.72(1) gamma: 90. volume: 371.63(5) crystal system: monoclinic
x	intensity
5	0
5.22	7.592
5.44	7.865
5.66	0.923
5.88	14.383
6.1	10.987
6.32	13.165
6.54	13.984
6.76	9.066
6.98	3.59
7.2	14.172
7.42	8.532
7.64	10.835
7.86	7.072
8.08	0.495
8.3	9.818
8.52	5.032
8.74	2.534
8.96	1.722
9.18	2.813
9.4	12.939
9.62	14.777
9.84	0.189
10.06	5.737
10.28	16.635
10.5	6.682
10.72	3.976
10.94	0.913
11.16	0.749
11.38	8.986
11.6	11.748
11.82	4.782
12.04	8.618
12.26	14.757
12.48	4.858
12.7	1.905
12.92	10.987
13.14	7.11
13.36	5.779
13.58	1.81
13.8	6.733
14.02	0.946
14.24	11.537
14.46	14.749
14.68	2.768
14.9	4.918
15.12	7.478
15.34	15.766
15.56	7.149
15.78	11.551
16	10.507
16.22	6.41
16.44	8.228
16.66	0.336
16.88	3.431
17.1	10.237
17.32	5.128
17.54	6.674
17.76	8.419
17.98	20.795
18.2	4.374
18.42	12.997
18.64	11.145
18.86	9.793
19.08	10.041
19.3	4.231
19.52	1.562
19.74	3.629
19.96	12.58
20.18	3.639
20.4	1.567
20.62	4.257
20.84	5.036
21.06	2.423
21.28	9.097
21.5	6.138
21.72	12.017
21.94	0.945
22.16	10.011
22.38	4.138
22.6	10.56
22.82	1.342
23.04	8.725
23.26	6.879
23.48	11.473
23.7	0.722
23.92	6.315
24.14	12.238
24.36	6.435
24.58	4.489
24.8	10.159
25.02	8.5
25.24	0.57
25.46	19.042
25.68	0.398
25.9	7.228
26.12	5.765
26.34	10.142
26.56	0.382
26.78	5.584
27	6.868
27.22	8.394
27.44	22.715
27.66	79.276
27.88	24.71
28.1	13.871
28.32	2.609
28.54	7.347
28.76	6.384
28.98	7.484
29.2	6.518
29.42	0.519
29.64	100.801
29.86	42.138
30.08	20.627
30.3	12.097
30.52	5.681
30.74	11.797
30.96	11.21
31.18	13.374
31.4	15.938
31.62	8.202
31.84	10.397
32.06	4.6
32.28	8.553
32.5	7.613
32.72	5.549
32.94	11.423
33.16	3.25
33.38	6.852
33.6	2.371
33.82	4.215
34.04	16.077
34.26	94.006
34.48	39.278
34.7	35.051
34.92	16.83
35.14	9.441
35.36	11.933
35.58	6.556
35.8	11.386
36.02	6.835
36.24	10.237
36.46	1.991
36.68	12.342
36.9	5.206
37.12	12.663
37.34	2.497
37.56	0.905
37.78	5.785
38	15.764
38.22	3.228
38.44	8.975
38.66	3.704
38.88	2.086
39.1	1.142
39.32	12.625
39.54	8.307
39.76	19.162
39.98	9.027
40.2	10.299
40.42	8.381
40.64	5.973
40.86	1.433
41.08	10.863
41.3	0.673
41.52	6.916
41.74	6.042
41.96	6.074
42.18	1.893
42.4	12.577
42.62	13.001
42.84	11.781
43.06	17.317
43.28	13.993
43.5	18.963
43.72	36.273
43.94	1.608
44.16	6.739
44.38	0.382
44.6	11.808
44.82	17.093
45.04	14.707
45.26	10.014
45.48	6.415
45.7	9.61
45.92	7.761
46.14	7.915
46.36	6.795
46.58	0.911
46.8	6.05
47.02	9.241
47.24	5.468
47.46	5.177
47.68	4.093
47.9	5.827
48.12	8.806
48.34	1.255
48.56	4.795
48.78	2.92
49	8.67
49.22	19.36
49.44	5.127
49.66	0.115
49.88	4.987
50.1	7.453
50.32	17.669
50.54	20.567
50.76	6.475
50.98	1.528
51.2	8.196
51.42	2.868
51.64	8.332
51.86	2.091
52.08	7.44
52.3	4.798
52.52	23.297
52.74	17.87
52.96	11.066
53.18	4.182
53.4	14.392
53.62	9.181
53.84	11.577
54.06	3.846
54.28	8.094
54.5	6.34
54.72	7.573
54.94	6.721
55.16	4.835
55.38	12.642
55.6	29.874
55.82	7.718
56.04	3.1
56.26	6.059
56.48	4.28
56.7	5.598
56.92	3.835
57.14	13.269
57.36	4.837
57.58	4.052
57.8	5.31
58.02	9.688
58.24	11.729
58.46	1.339
58.68	4.619
58.9	14.803
59.12	7.551
59.34	13.194
59.56	3.274
59.78	9.857
60	9.053
60.22	20.01
60.44	4.087
60.66	11.102
60.88	6.147
61.1	3.213
61.32	11.014
61.54	16.492
61.76	10.549
61.98	11.686
62.2	13.159
62.42	13.392
62.64	12.428
62.86	3.868
63.08	12.359
63.3	10.913
63.52	12.96
63.74	4.955
63.96	5.84
64.18	3.887
64.4	9.377
64.62	11.88
64.84	15.587
65.06	4.141
65.28	6.217
65.5	3.831
65.72	7.574
65.94	11.01
66.16	8.287
66.38	4.385
66.6	9.733
66.82	8.096
67.04	1.472
67.26	6.867
67.48	5.266
67.7	15.365
67.92	2.725
68.14	4.634
68.36	4.307
68.58	13.198
68.8	3.846
69.02	3.825
69.24	3.687
69.46	10.737
69.68	11.668
69.9	1.882
70.12	5.835
70.34	4.637
70.56	1.817
70.78	1.035
71	1.959
71.22	1.041
71.44	3.841
71.66	5.104
71.88	7.884
72.1	6.732
72.32	7.641
72.54	4.626
72.76	7.669
72.98	3.076
73.2	7.902
73.42	4.102
73.64	10.172
73.86	3.286
74.08	16.118
74.3	3.214
74.52	10.443
74.74	8.491
74.96	6.856
75.18	2.6
75.4	3.934
75.62	2.966
75.84	8.034
76.06	13.348
76.28	7.488
76.5	8.614
76.72	0.683
76.94	6.56
77.16	4.463
77.38	5.168
77.6	6.006
77.82	14.01
78.04	12.177
78.26	1.569
78.48	4.319
78.7	2.617
78.92	1.387
79.14	0.602
79.36	1.634
79.58	2.684
79.8	6.734
80.02	2.587
80.24	5.682
80.46	3.698
80.68	5.594
80.9	0.585
81.12	2.555
81.34	7.504
81.56	10.49
81.78	9.491
82	4.641
82.22	8.843
82.44	6.918
82.66	0.854
82.88	0.823
83.1	5.604
83.32	3.305
83.54	9.873
83.76	3.773
83.98	6.865
84.2	4.731
84.42	11.587
84.64	3.251
84.86	6.109
85.08	3.841
85.3	1.401
85.52	7.36
85.74	8.108
85.96	0.935
86.18	7.919
86.4	7.746
86.62	3.519
86.84	10.491
87.06	12.432
87.28	0.713
87.5	4.769
87.72	15
87.94	9.184
88.16	9.204
88.38	2.207
88.6	7.396
88.82	9.907
89.04	8.377
89.26	7.521
89.48	11.889
89.7	11.438
89.92	0.631
