Measurement: Powder, Xray Data XY Processed
Mineral: Topaz
Rruff sample: R060024
Ideal chemistry: Al_2_SiO_4_F_2_
Locality: Antonio Peireira Topaz mine, Minas Gerais, Brazil, GPS coordinates: 20 18 18 S, 43 28 37 W, 2697 ASL
Source: Eric Van Valkenburg
Description: Smoky brown single crystal
Diffraction sample description: Powder
Measured chemistry: Al_2.00_Si_1.00_O_4_(F_0.68_(OH)_0.32_)_2_
Cell parameters: a: 4.6619(2) b: 8.8317(3) c: 8.3879(2) alpha: 90 beta: 90 gamma: 90 volume: 345.35(1) crystal system: orthorhombic
x	intensity
5	0
5.22	4.42399
5.44	12.9692
5.66	24.9169
5.88	4.04387
6.1	6.57313
6.32	14.3169
6.54	14.6687
6.76	4.31706
6.98	10.2065
7.2	1.08808
7.42	10.3348
7.64	0.32653
7.86	9.59461
8.08	3.51623
8.3	6.441
8.52	9.12479
8.74	7.03176
8.96	7.70547
9.18	8.32091
9.4	13.7738
9.62	6.43576
9.84	7.68912
10.06	9.89526
10.28	10.37
10.5	4.81205
10.72	0.487269
10.94	6.5625
11.16	7.75736
11.38	9.82604
11.6	3.7138
11.82	1.93159
12.04	3.7076
12.26	5.7835
12.48	1.5757
12.7	3.57005
12.92	5.92687
13.14	3.53294
13.36	2.74694
13.58	10.919
13.8	12.9961
14.02	11.217
14.24	9.18134
14.46	10.2088
14.68	1.1141
14.9	7.34368
15.12	13.9286
15.34	4.00396
15.56	7.95619
15.78	6.73546
16	6.57878
16.22	3.60806
16.44	9.67263
16.66	10.6084
16.88	6.93239
17.1	2.00877
17.32	2.95836
17.54	3.02372
17.76	11.3208
17.98	3.26662
18.2	2.31006
18.42	7.27501
18.64	5.94033
18.86	10.6356
19.08	4.09175
19.3	9.86725
19.52	6.8466
19.74	5.66243
19.96	13.3137
20.18	16.8514
20.4	18.0313
20.62	0.076214
20.84	1.90984
21.06	22.5053
21.28	5.83189
21.5	6.12268
21.72	15.3857
21.94	2.43447
22.16	4.5311
22.38	5.7768
22.6	7.79182
22.82	15.5458
23.04	4.423
23.26	1.4561
23.48	9.02736
23.7	4.98888
23.92	20.5261
24.14	83.0625
24.36	10.5961
24.58	4.29984
24.8	0.665257
25.02	2.21947
25.24	7.82595
25.46	6.47388
25.68	12.8982
25.9	8.38282
26.12	9.48102
26.34	11.7815
26.56	33.6591
26.78	13.0394
27	3.60592
27.22	1.09026
27.44	8.7371
27.66	12.1503
27.88	135.211
28.1	4.23594
28.32	10.8835
28.54	12.0273
28.76	18.4138
28.98	15.2418
29.2	59.4627
29.42	97.5094
29.64	43.9375
29.86	94.7551
30.08	29.3357
30.3	45.7292
30.52	63.91
30.74	4.24917
30.96	4.51769
31.18	1.9678
31.4	10.2783
31.62	9.47975
31.84	5.48907
32.06	1.03214
32.28	7.37429
32.5	6.87046
32.72	1.69829
32.94	13.7906
33.16	14.9235
33.38	9.18616
33.6	7.25411
33.82	12.4258
34.04	2.57397
34.26	2.77901
34.48	11.1985
34.7	3.6087
34.92	14.6062
35.14	6.45769
35.36	3.79401
35.58	5.92609
35.8	3.85185
36.02	22.6142
36.24	19.6493
36.46	3.47288
36.68	15.1456
36.9	8.64799
37.12	1.16121
37.34	10.9887
37.56	5.7896
37.78	34.525
38	13.3582
38.22	60.5547
38.44	1.53496
38.66	6.8054
38.88	22.947
39.1	7.06256
39.32	1.16434
39.54	0.069004
39.76	1.80432
39.98	5.53585
40.2	0.371563
40.42	14.9552
40.64	8.55709
40.86	41.48
41.08	2.591
41.3	1.24969
41.52	16.9182
41.74	7.60925
41.96	3.46087
42.18	4.71368
42.4	9.424
42.62	15.2778
42.84	27.2383
43.06	49.2026
43.28	5.88099
43.5	6.66579
43.72	2.91388
43.94	42.7607
44.16	2.90348
44.38	5.93748
44.6	13.9591
44.82	3.82672
45.04	12.8537
45.26	11.7084
45.48	21.393
45.7	22.0203
45.92	6.49857
46.14	11.2231
46.36	6.11335
46.58	9.03668
46.8	23.128
47.02	13.4549
47.24	9.92712
47.46	7.33845
47.68	7.73711
47.9	7.17396
48.12	0.654398
48.34	0.426144
48.56	12.8424
48.78	30.0004
49	80.4962
49.22	10.0623
49.44	5.5165
49.66	7.50457
49.88	38.0384
50.1	9.35685
50.32	0.319263
50.54	5.39719
50.76	5.39245
50.98	5.11559
51.2	2.37388
51.42	10.3632
51.64	5.36527
51.86	6.2289
52.08	2.29486
52.3	6.06941
52.52	4.26853
52.74	2.72397
52.96	5.61475
53.18	9.09401
53.4	6.18732
53.62	7.15126
53.84	6.26007
54.06	0.307419
54.28	2.32111
54.5	9.34387
54.72	23.2919
54.94	36.573
55.16	8.2344
55.38	17.013
55.6	10.3313
55.82	9.12328
56.04	4.15267
56.26	3.90724
56.48	6.63129
56.7	27.3629
56.92	6.09923
57.14	6.90079
57.36	7.61863
57.58	11.3332
57.8	2.9995
58.02	0.046661
58.24	13.1741
58.46	1.81771
58.68	18.7406
58.9	4.05785
59.12	5.16849
59.34	5.23131
59.56	5.82748
59.78	5.04094
60	5.50251
60.22	8.21862
60.44	26.4309
60.66	24.55
60.88	8.1137
61.1	2.47626
61.32	5.68168
61.54	9.93055
61.76	5.61257
61.98	0.825302
62.2	1.30108
62.42	7.13182
62.64	10.659
62.86	13.8695
63.08	7.73912
63.3	11.3821
63.52	1.01771
63.74	1.85009
63.96	7.53642
64.18	7.32588
64.4	23.2423
64.62	13.6029
64.84	10.6735
65.06	4.61622
65.28	2.81844
65.5	14.0178
65.72	6.9524
65.94	1.18258
66.16	6.67901
66.38	33.497
66.6	19.5493
66.82	6.68096
67.04	28.8729
67.26	28.605
67.48	10.8003
67.7	3.94543
67.92	1.91306
68.14	2.99218
68.36	7.27823
68.58	4.37477
68.8	3.59285
69.02	20.588
69.24	17.6417
69.46	2.56921
69.68	6.57465
69.9	13.3689
70.12	7.48099
70.34	6.87905
70.56	4.28545
70.78	12.3095
71	14.5582
71.22	7.96013
71.44	1.09923
71.66	5.95032
71.88	5.40975
72.1	2.61142
72.32	4.82618
72.54	4.13519
72.76	4.22583
72.98	0.819152
73.2	6.22813
73.42	5.17463
73.64	2.29055
73.86	4.28774
74.08	8.41799
74.3	2.37027
74.52	0.320664
74.74	8.24906
74.96	2.99748
75.18	2.74555
75.4	4.78545
75.62	8.67495
75.84	12.7293
76.06	1.33336
76.28	0.71773
76.5	8.00002
76.72	3.20208
76.94	13.2768
77.16	3.39418
77.38	4.40658
77.6	7.35136
77.82	1.25404
78.04	6.63318
78.26	7.52864
78.48	23.5611
78.7	3.61598
78.92	9.89282
79.14	4.515
79.36	3.54965
79.58	9.78132
79.8	6.01245
80.02	0.385205
80.24	10.5794
80.46	5.46696
80.68	6.56675
80.9	2.74737
81.12	5.82458
81.34	6.6846
81.56	9.75907
81.78	2.56646
82	1.37064
82.22	3.47516
82.44	5.27162
82.66	10.0971
82.88	4.00075
83.1	5.13494
83.32	4.98194
83.54	3.90429
83.76	8.83761
83.98	9.18727
84.2	5.24176
84.42	1.22076
84.64	9.09501
84.86	13.1982
85.08	0.807544
85.3	3.22277
85.52	2.28723
85.74	5.35784
85.96	4.59552
86.18	2.01868
86.4	0.621716
86.62	9.50055
86.84	5.3751
87.06	4.64271
87.28	6.62713
87.5	5.54846
87.72	11.5437
87.94	8.44353
88.16	4.4052
88.38	2.25956
88.6	10.0001
88.82	5.04096
89.04	6.77057
89.26	6.90831
89.48	0.927816
89.7	6.33879
89.92	5.84874
