Measurement: Powder, Xray Data XY Processed
Mineral: Topaz
Rruff sample: R050405
Ideal chemistry: Al_2_SiO_4_F_2_
Locality: Amelia, Virginia, USA
Source: Gerry Gibbs
Description: Colorless cleavage fragment
Diffraction sample description: Powder
Measured chemistry: Al_2.00_Si_1.00_O_4_(F_0.75_(OH)_0.25_)_2_
Cell parameters: a: 4.6498(1) b: 8.7970(2) c: 8.3910(1) alpha: 90 beta: 90 gamma: 90 volume: 343.229(9) crystal system: orthorhombic
x	intensity
5	0
5.22	18.744
5.44	1.75863
5.66	3.2992
5.88	6.89907
6.1	7.56978
6.32	15.8951
6.54	0.308353
6.76	9.53866
6.98	11.4919
7.2	11.253
7.42	2.27872
7.64	13.138
7.86	1.23011
8.08	8.31971
8.3	5.80602
8.52	1.62339
8.74	1.25153
8.96	5.42686
9.18	2.84894
9.4	2.89135
9.62	7.08754
9.84	3.10734
10.06	6.05858
10.28	6.1641
10.5	5.28783
10.72	0.486107
10.94	8.50152
11.16	2.7417
11.38	0.377577
11.6	12.6824
11.82	5.75263
12.04	1.00959
12.26	6.28433
12.48	5.52826
12.7	8.56995
12.92	3.60556
13.14	4.54404
13.36	4.4711
13.58	6.4438
13.8	3.50882
14.02	4.28121
14.24	1.30471
14.46	5.94658
14.68	6.76734
14.9	3.63512
15.12	1.28948
15.34	9.98513
15.56	9.18087
15.78	7.56915
16	8.68502
16.22	9.94595
16.44	3.30359
16.66	2.49939
16.88	4.73994
17.1	8.30809
17.32	0.53635
17.54	0.110271
17.76	4.96625
17.98	5.95705
18.2	13.0141
18.42	1.97486
18.64	7.14912
18.86	7.96043
19.08	5.92495
19.3	7.04605
19.52	3.58284
19.74	5.66246
19.96	10.3775
20.18	51.1724
20.4	0.95343
20.62	0.846116
20.84	1.89955
21.06	5.70043
21.28	9.68083
21.5	2.88666
21.72	13.6455
21.94	1.81526
22.16	4.78819
22.38	4.82468
22.6	1.08135
22.82	50.0425
23.04	5.01285
23.26	6.75593
23.48	12.7107
23.7	4.60268
23.92	24.4775
24.14	261.421
24.36	15.145
24.58	3.87185
24.8	1.83811
25.02	1.71797
25.24	4.69685
25.46	0.857799
25.68	10.0572
25.9	4.39482
26.12	4.40922
26.34	1.30564
26.56	7.60277
26.78	2.63945
27	6.61516
27.22	4.29018
27.44	16.3462
27.66	1.42429
27.88	251.5
28.1	19.9298
28.32	5.21707
28.54	5.78853
28.76	0.861253
28.98	0.428469
29.2	7.19043
29.42	390.907
29.64	4.75049
29.86	36.4579
30.08	13.2172
30.3	34.599
30.52	329.15
30.74	4.74596
30.96	8.36215
31.18	11.0254
31.4	6.62274
31.62	3.16863
31.84	7.77067
32.06	9.24771
32.28	4.59698
32.5	7.75922
32.72	8.54402
32.94	0.576895
33.16	3.54619
33.38	4.62701
33.6	1.50968
33.82	3.46623
34.04	8.3915
34.26	0.332568
34.48	2.7054
34.7	1.42553
34.92	7.25928
35.14	8.18133
35.36	1.12789
35.58	7.22219
35.8	6.04986
36.02	3.25318
36.24	48.1391
36.46	15.9031
36.68	1.50429
36.9	4.09949
37.12	1.53645
37.34	6.16962
37.56	22.8501
37.78	58.5866
38	26.7665
38.22	162.675
38.44	6.59958
38.66	3.79463
38.88	20.224
39.1	10.4197
39.32	6.08139
39.54	0.346073
39.76	1.70279
39.98	0.919614
40.2	15.2749
40.42	4.37835
40.64	6.15652
40.86	3.55658
41.08	22.1819
41.3	0.964314
41.52	26.6843
41.74	9.00737
41.96	4.63528
42.18	6.30307
42.4	1.98177
42.62	7.80665
42.84	29.6863
43.06	231.438
43.28	6.27076
43.5	2.38364
43.72	0.896928
43.94	18.5067
44.16	62.7665
44.38	7.12958
44.6	3.44686
44.82	6.67889
45.04	3.78583
45.26	9.1923
45.48	0.584844
45.7	34.4413
45.92	9.4894
46.14	5.26884
46.36	2.32907
46.58	18.3243
46.8	5.7691
47.02	7.71633
47.24	3.78944
47.46	5.59084
47.68	2.35721
47.9	9.95184
48.12	5.69475
48.34	9.53954
48.56	8.52989
48.78	25.9305
49	42.5414
49.22	221.203
49.44	6.17119
49.66	3.99393
49.88	4.02486
50.1	12.2797
50.32	6.50069
50.54	9.07178
50.76	25.3596
50.98	7.38379
51.2	12.1832
51.42	21.6382
51.64	4.03712
51.86	7.41744
52.08	5.90937
52.3	9.22649
52.52	3.80375
52.74	1.93803
52.96	2.75627
53.18	2.754
53.4	0.437658
53.62	4.10277
53.84	5.87312
54.06	1.54737
54.28	3.22099
54.5	0.035325
54.72	7.75767
54.94	74.4483
55.16	3.72591
55.38	15.0937
55.6	41.0671
55.82	11.0324
56.04	6.14639
56.26	2.43741
56.48	3.58116
56.7	12.7033
56.92	45.8472
57.14	8.99769
57.36	0.145535
57.58	4.39741
57.8	4.97515
58.02	7.92708
58.24	5.83336
58.46	15.934
58.68	2.91086
58.9	6.98696
59.12	3.73608
59.34	3.61391
59.56	8.3494
59.78	4.35645
60	0.357903
60.22	10.5488
60.44	17.6322
60.66	39.0486
60.88	16.9711
61.1	8.83834
61.32	9.78528
61.54	2.88154
61.76	3.12653
61.98	2.48356
62.2	0.248586
62.42	16.796
62.64	16.4725
62.86	2.65169
63.08	2.10001
63.3	1.70038
63.52	10.4392
63.74	9.16467
63.96	5.91609
64.18	2.81733
64.4	8.38345
64.62	19.8701
64.84	3.45482
65.06	6.1636
65.28	0.10532
65.5	2.99345
65.72	32.5581
65.94	56.1826
66.16	9.86649
66.38	7.64996
66.6	87.2493
66.82	119.916
67.04	114.979
67.26	15.1017
67.48	30.0076
67.7	9.0164
67.92	3.47172
68.14	17.895
68.36	9.34244
68.58	2.21597
68.8	6.22699
69.02	9.60813
69.24	115.141
69.46	67.4156
69.68	4.6566
69.9	22.9787
70.12	9.10749
70.34	2.68608
70.56	9.69847
70.78	11.1216
71	140.765
71.22	81.9262
71.44	5.26975
71.66	6.32836
71.88	2.60975
72.1	3.97786
72.32	5.49531
72.54	3.67347
72.76	13.6181
72.98	21.5698
73.2	6.25474
73.42	7.06269
73.64	6.8712
73.86	9.74639
74.08	9.13939
74.3	5.9481
74.52	7.07075
74.74	2.61321
74.96	1.59958
75.18	4.60536
75.4	0.068896
75.62	6.9226
75.84	9.884
76.06	28.8638
76.28	12.847
76.5	4.39318
76.72	0.327658
76.94	0.429236
77.16	9.64269
77.38	5.64661
77.6	7.66062
77.82	8.32908
78.04	2.39809
78.26	0.356953
78.48	19.8834
78.7	15.9341
78.92	12.8733
79.14	7.89453
79.36	2.98936
79.58	5.97089
79.8	7.14437
80.02	3.30924
80.24	5.54515
80.46	2.59607
80.68	2.49771
80.9	2.44276
81.12	2.43042
81.34	4.52003
81.56	4.14769
81.78	1.97197
82	6.77962
82.22	3.52452
82.44	3.24427
82.66	5.01109
82.88	0.703735
83.1	5.48324
83.32	8.44608
83.54	22.3526
83.76	6.16218
83.98	7.20431
84.2	11.5801
84.42	1.26461
84.64	8.95138
84.86	29.1928
85.08	7.55532
85.3	6.87036
85.52	2.08382
85.74	3.20584
85.96	2.39527
86.18	6.6134
86.4	0.86714
86.62	2.7782
86.84	7.93107
87.06	4.85301
87.28	0.923054
87.5	0.667163
87.72	2.57059
87.94	4.54927
88.16	0.521598
88.38	2.64173
88.6	13.8544
88.82	16.7551
89.04	5.84738
89.26	4.00101
89.48	3.35026
89.7	5.99022
89.92	3.52235
