Measurement: Powder, Xray Data XY Processed
Mineral: Tourmaline
Rruff sample: R080010
Locality: east Africa
Source: www.multicolour.com
Description: Green gemmy fragments, consistent with dravite
Diffraction sample description: Powder
Cell parameters: a: 15.9165(3) b: 15.9165(3) c: 7.1871(3) alpha: 90 beta: 90 gamma: 120 volume: 1576.81(7) crystal system: hexagonal
x	intensity
5	0
5.22	13.5001
5.44	6.42644
5.66	6.82269
5.88	14.1036
6.1	11.0509
6.32	11.5532
6.54	18.6291
6.76	7.40451
6.98	5.09228
7.2	11.1619
7.42	13.99
7.64	2.69353
7.86	8.23721
8.08	11.5205
8.3	9.56851
8.52	22.2182
8.74	3.04159
8.96	15.0668
9.18	4.73313
9.4	11.2299
9.62	0.294481
9.84	11.5658
10.06	3.69425
10.28	15.7433
10.5	2.97409
10.72	12.768
10.94	10.8257
11.16	9.03482
11.38	5.91099
11.6	14.5125
11.82	3.37964
12.04	10.8226
12.26	14.1227
12.48	17.9105
12.7	4.61042
12.92	23.8214
13.14	9.62907
13.36	3.105
13.58	9.74709
13.8	40.8102
14.02	9.18961
14.24	29.0325
14.46	3.29556
14.68	9.81235
14.9	6.88438
15.12	3.37184
15.34	6.72654
15.56	13.9252
15.78	6.68461
16	22.4358
16.22	7.26103
16.44	16.9066
16.66	19.2667
16.88	27.7145
17.1	21.0539
17.32	1.85398
17.54	7.35706
17.76	58.7115
17.98	27.8992
18.2	19.6075
18.42	1.56149
18.64	12.8647
18.86	12.4618
19.08	1.57036
19.3	115.05
19.52	9.95736
19.74	14.1207
19.96	11.4193
20.18	9.54033
20.4	6.09853
20.62	8.53802
20.84	5.27752
21.06	471.29
21.28	14.5515
21.5	11.4117
21.72	8.09837
21.94	15.9508
22.16	16.3825
22.38	278.754
22.6	12.6154
22.82	6.0573
23.04	9.33543
23.26	9.01021
23.48	2.64645
23.7	28.0837
23.92	4.31212
24.14	5.98553
24.36	12.7022
24.58	8.47694
24.8	16.6114
25.02	13.6911
25.24	4.14275
25.46	31.1167
25.68	322.162
25.9	9.32441
26.12	17.2806
26.34	34.6855
26.56	2.42078
26.78	2.00339
27	12.5426
27.22	26.6942
27.44	18.3605
27.66	7.45031
27.88	16.1392
28.1	16.5407
28.32	15.7004
28.54	28.35
28.76	20.203
28.98	14.1738
29.2	5.16591
29.42	20.1947
29.64	23.157
29.86	28.5315
30.08	54.267
30.3	211.921
30.52	10.5092
30.74	7.08054
30.96	35.9496
31.18	5.05114
31.4	14.8015
31.62	3.11514
31.84	3.96081
32.06	18.464
32.28	0.876389
32.5	14.1162
32.72	3.06872
32.94	14.1962
33.16	3.86581
33.38	15.3785
33.6	3.03875
33.82	8.98346
34.04	7.90577
34.26	27.9158
34.48	8.70419
34.7	34.9787
34.92	242.854
35.14	25.6834
35.36	5.04375
35.58	3.95564
35.8	13.2457
36.02	16.2387
36.24	5.7119
36.46	4.83011
36.68	18.2157
36.9	9.45816
37.12	11.8384
37.34	5.78562
37.56	55.4908
37.78	12.4069
38	21.6301
38.22	13.7234
38.44	107.41
38.66	13.5117
38.88	4.33434
39.1	10.3194
39.32	11.3948
39.54	7.53939
39.76	3.96536
39.98	1.96629
40.2	9.51735
40.42	5.42493
40.64	2.1744
40.86	5.10829
41.08	11.1969
41.3	5.05054
41.52	0.286358
41.74	49.4559
41.96	11.9005
42.18	1.86519
42.4	1.18465
42.62	47.3369
42.84	50.849
43.06	0.107166
43.28	13.3496
43.5	11.4273
43.72	3.6367
43.94	14.9648
44.16	37.1543
44.38	130.226
44.6	29.9249
44.82	6.72974
45.04	8.81988
45.26	7.72046
45.48	4.58435
45.7	8.97285
45.92	0.816202
46.14	10.425
46.36	7.38515
46.58	7.52834
46.8	2.97451
47.02	17.9328
47.24	20.258
47.46	19.973
47.68	1.2209
47.9	10.4713
48.12	5.33548
48.34	6.73959
48.56	34.9913
48.78	1.19421
49	4.43992
49.22	5.83728
49.44	28.8833
49.66	31.6247
49.88	8.33249
50.1	6.37846
50.32	4.68593
50.54	10.129
50.76	7.53847
50.98	16.0029
51.2	26.8478
51.42	7.77367
51.64	7.15724
51.86	2.74441
52.08	11.8127
52.3	11.7134
52.52	5.1712
52.74	15.9454
52.96	9.21992
53.18	8.05224
53.4	7.99705
53.62	2.07134
53.84	9.06484
54.06	2.91423
54.28	15.7633
54.5	7.61321
54.72	9.6512
54.94	15.2285
55.16	6.52559
55.38	85.4561
55.6	7.63345
55.82	7.41184
56.04	53.59
56.26	19.1852
56.48	6.2574
56.7	9.35628
56.92	2.42708
57.14	10.1833
57.36	1.11576
57.58	18.27
57.8	10.4939
58.02	25.3922
58.24	5.64314
58.46	2.88151
58.68	3.30798
58.9	12.139
59.12	16.5127
59.34	4.79109
59.56	3.03864
59.78	10.0851
60	13.7441
60.22	1.54856
60.44	6.51038
60.66	16.4481
60.88	4.07882
61.1	19.1163
61.32	11.0722
61.54	43.0253
61.76	29.1721
61.98	4.3604
62.2	3.56815
62.42	4.41395
62.64	3.81512
62.86	7.03802
63.08	8.25013
63.3	10.0738
63.52	3.19844
63.74	11.152
63.96	56.4601
64.18	37.3884
64.4	6.28675
64.62	2.4783
64.84	10.6274
65.06	9.43401
65.28	10.3959
65.5	12.4151
65.72	4.60435
65.94	14.96
66.16	5.82977
66.38	31.359
66.6	19.6831
66.82	8.60628
67.04	7.68507
67.26	6.08743
67.48	0.390755
67.7	6.77144
67.92	3.41818
68.14	14.341
68.36	7.19683
68.58	2.78672
68.8	1.26603
69.02	17.192
69.24	1.52526
69.46	2.18554
69.68	2.95413
69.9	6.91889
70.12	12.746
70.34	8.14263
70.56	9.29192
70.78	8.32064
71	49.3222
71.22	18.1951
71.44	0.20473
71.66	3.36252
71.88	7.04841
72.1	36.9039
72.32	19.8213
72.54	1.78778
72.76	1.86439
72.98	8.32199
73.2	4.32712
73.42	5.34559
73.64	11.4961
73.86	7.76369
74.08	15.8535
74.3	16.8837
74.52	18.9205
74.74	13.6122
74.96	13.9442
75.18	7.16864
75.4	3.92077
75.62	10.4852
75.84	1.79308
76.06	1.25795
76.28	3.56456
76.5	12.6156
76.72	4.59171
76.94	12.4186
77.16	7.82614
77.38	11.0585
77.6	13.0169
77.82	2.52469
78.04	11.3292
78.26	10.332
78.48	3.53298
78.7	10.8573
78.92	8.11039
79.14	5.24747
79.36	10.4964
79.58	0.81903
79.8	3.46703
80.02	15.5237
80.24	8.07386
80.46	8.11633
80.68	4.92086
80.9	5.05584
81.12	12.0367
81.34	7.8374
81.56	5.74806
81.78	0.114952
82	12.6538
82.22	3.57747
82.44	1.47818
82.66	2.38122
82.88	0.603375
83.1	5.36745
83.32	8.12326
83.54	7.20293
83.76	8.31914
83.98	13.9739
84.2	4.92444
84.42	9.29306
84.64	7.65059
84.86	6.71504
85.08	13.7491
85.3	7.83109
85.52	6.92434
85.74	6.51334
85.96	9.38634
86.18	17.109
86.4	12.6304
86.62	12.4044
86.84	9.35176
87.06	8.09959
87.28	5.07593
87.5	5.83239
87.72	7.90357
87.94	8.99935
88.16	5.61076
88.38	11.8281
88.6	0.837037
88.82	14.7713
89.04	3.79688
89.26	0.920082
89.48	3.97198
89.7	2.35186
89.92	4.94795
