Measurement: Powder, Xray Data XY Processed
Mineral: Trilithionite
Rruff sample: R050486
Ideal chemistry: KLi_1.5_Al_1.5_(Si_3_Al)O_10_F_2_
Locality: Cotopaxie, Colorado, USA
Source: California Institute of Technology
Description: Microcrystalline massive, no visible indication of foliation, polytype 1M
Diffraction sample description: Powder
Measured chemistry: (K_0.98_Ca_0.02_)(Li_0.53_Al_0.47_)_3_(Si_0.79_Al_0.21_)_4_O_10_(OH)_2_
Cell parameters: a: 5.192(1) b: 8.971(2) c: 10.240(2) alpha: 90. beta: 101.58(1) gamma: 90. volume: 467.2(1) crystal system: monoclinic
x	intensity
5	0
5.22	14.149
5.44	4.373
5.66	13.897
5.88	6.808
6.1	9.798
6.32	12.586
6.54	10.684
6.76	7.286
6.98	0.511
7.2	8.895
7.42	18.278
7.64	6.891
7.86	0.25
8.08	6.627
8.3	5.963
8.52	6.293
8.74	112.22
8.96	44.465
9.18	10.183
9.4	14.804
9.62	4.81
9.84	0.4
10.06	5.755
10.28	1.567
10.5	4.339
10.72	2.437
10.94	4.967
11.16	13.087
11.38	7.63
11.6	2.246
11.82	5.342
12.04	6.132
12.26	14.371
12.48	27.418
12.7	8.844
12.92	0.731
13.14	0.502
13.36	0.681
13.58	0.184
13.8	9.159
14.02	4.655
14.24	8.474
14.46	7.713
14.68	7.906
14.9	0.155
15.12	7.846
15.34	0.373
15.56	5.659
15.78	0.353
16	10.842
16.22	9.428
16.44	1.947
16.66	9.418
16.88	7.938
17.1	0.731
17.32	19.659
17.54	4.212
17.76	83.366
17.98	10.265
18.2	15.499
18.42	0.188
18.64	1.47
18.86	8.849
19.08	0.392
19.3	2.833
19.52	1.353
19.74	23.327
19.96	41.812
20.18	18.301
20.4	23.481
20.62	11.339
20.84	4.29
21.06	6.995
21.28	0.203
21.5	11.461
21.72	29.369
21.94	0.585
22.16	0.209
22.38	6.046
22.6	11.971
22.82	0.261
23.04	7.318
23.26	10.932
23.48	0.191
23.7	8.62
23.92	4.428
24.14	13.821
24.36	48.568
24.58	26.281
24.8	14.031
25.02	0.878
25.24	1.025
25.46	15.966
25.68	13.282
25.9	0.318
26.12	7.693
26.34	0.329
26.56	70.689
26.78	144.941
27	27.098
27.22	3.571
27.44	3.465
27.66	0.145
27.88	5.908
28.1	6.863
28.32	5.758
28.54	0.222
28.76	0.654
28.98	10.67
29.2	89.125
29.42	16.754
29.64	9.286
29.86	15.721
30.08	3.749
30.3	5.413
30.52	17.376
30.74	16.257
30.96	21.966
31.18	8.242
31.4	0.636
31.62	4.917
31.84	0.689
32.06	0.21
32.28	1.277
32.5	3.175
32.72	0.003
32.94	3.966
33.16	10.236
33.38	23.658
33.6	17.384
33.82	8.22
34.04	0.929
34.26	1.687
34.48	0.591
34.7	27.908
34.92	32.761
35.14	53.367
35.36	21.546
35.58	6.457
35.8	10.692
36.02	5.598
36.24	5.55
36.46	4.96
36.68	20.576
36.9	12.404
37.12	7.552
37.34	0.7
37.56	11.08
37.78	13.315
38	8.638
38.22	19.933
38.44	0.558
38.66	5.788
38.88	4.753
39.1	0.511
39.32	6.844
39.54	9.551
39.76	9.313
39.98	4.153
40.2	9.391
40.42	14.056
40.64	5.762
40.86	4.329
41.08	10.231
41.3	1.47
41.52	7.93
41.74	3.445
41.96	5.85
42.18	5.073
42.4	13.3
42.62	11.798
42.84	6.67
43.06	14.977
43.28	9.202
43.5	13.85
43.72	1.137
43.94	6.038
44.16	0.642
44.38	0.569
44.6	9.799
44.82	9.147
45.04	50.994
45.26	49.016
45.48	32.536
45.7	8.1
45.92	6.312
46.14	7.472
46.36	7.527
46.58	23.542
46.8	0.394
47.02	3.46
47.24	0.474
47.46	1.379
47.68	16.264
47.9	5.988
48.12	1.603
48.34	10.221
48.56	2.899
48.78	4.696
49	1.941
49.22	7.937
49.44	5.03
49.66	4.346
49.88	6.274
50.1	1.057
50.32	10.124
50.54	10.096
50.76	2.871
50.98	5.782
51.2	0.639
51.42	9.316
51.64	8.029
51.86	9.022
52.08	0.068
52.3	6.477
52.52	11.182
52.74	3.626
52.96	10.354
53.18	7.144
53.4	6.674
53.62	15.449
53.84	5.183
54.06	14.822
54.28	0.879
54.5	4.183
54.72	4.323
54.94	5.872
55.16	24.454
55.38	9.538
55.6	2.874
55.82	7.513
56.04	7.47
56.26	8.425
56.48	10.363
56.7	2.259
56.92	3.304
57.14	9.12
57.36	1.823
57.58	1.694
57.8	2.344
58.02	0.287
58.24	0.312
58.46	3.954
58.68	10.396
58.9	7.146
59.12	2.025
59.34	4.547
59.56	0.139
59.78	14.664
60	5.149
60.22	0.011
60.44	5.011
60.66	2.288
60.88	4.447
61.1	0.028
61.32	3.583
61.54	4.207
61.76	11.522
61.98	20.124
62.2	14.756
62.42	10.426
62.64	0.357
62.86	0.319
63.08	1.731
63.3	5.581
63.52	6.261
63.74	9.648
63.96	2.176
64.18	3.452
64.4	0.206
64.62	7.712
64.84	8.615
65.06	12.708
65.28	12.074
65.5	5.435
65.72	5.502
65.94	0.661
66.16	9.896
66.38	1.767
66.6	3.917
66.82	5.642
67.04	8.368
67.26	7.811
67.48	0.478
67.7	3.6
67.92	8.908
68.14	7.05
68.36	8.468
68.58	5.597
68.8	8.173
69.02	7.749
69.24	0.836
69.46	10.513
69.68	0.312
69.9	7.768
70.12	9.157
70.34	13.516
70.56	11.158
70.78	2.341
71	0.186
71.22	2.9
71.44	1.496
71.66	3.611
71.88	5.569
72.1	16.061
72.32	18.249
72.54	3.235
72.76	0.734
72.98	14.404
73.2	4.427
73.42	2.167
73.64	3.301
73.86	0.031
74.08	0.067
74.3	6.716
74.52	6.8
74.74	0.996
74.96	5.928
75.18	0.895
75.4	7.766
75.62	1.732
75.84	3.911
76.06	13.731
76.28	4.245
76.5	7.613
76.72	2.6
76.94	2.098
77.16	9.191
77.38	6.616
77.6	0.067
77.82	3.08
78.04	3.552
78.26	9.441
78.48	4.619
78.7	5.053
78.92	4.086
79.14	4.296
79.36	3.138
79.58	15.201
79.8	5.221
80.02	0.526
80.24	0.482
80.46	8.575
80.68	4.677
80.9	1.823
81.12	1.145
81.34	3.55
81.56	0.528
81.78	6.596
82	2.826
82.22	5.767
82.44	0.679
82.66	3.655
82.88	3.829
83.1	0.301
83.32	1.041
83.54	6.183
83.76	8.982
83.98	0.071
84.2	5.204
84.42	7.273
84.64	0.502
84.86	0.48
85.08	0.138
85.3	0.402
85.52	2.679
85.74	8.968
85.96	5.591
86.18	0.774
86.4	1.695
86.62	6.671
86.84	3.371
87.06	4.264
87.28	5.495
87.5	1.463
87.72	0.443
87.94	0.172
88.16	8.376
88.38	0.229
88.6	7.464
88.82	4.683
89.04	3.058
89.26	5.411
89.48	6.502
89.7	9.761
89.92	0.127
