Measurement: Powder, Xray Data XY Processed
Mineral: Triplite
Rruff sample: R050615
Ideal chemistry: Mn^2+^_2_(PO_4_)F
Locality: Vienna, Austria
Source: University of Arizona Mineral Museum
Description: Brown massive
Diffraction sample description: Powder
Measured chemistry: (Mn^2+^_1.09_Fe^2+^_0.88_Ca_0.02_Mg_0.01_)_Σ=2_(P_1.00_O_4_)(F_0.72_(OH)_0.28_)_Σ=1_ ; = light phase (triplite) while the dark phase is fluorapatite: (Ca_4.44_Mn^2+^_0.44_Fe^2+^_0.12_)_Σ=5_(P_1.00_O_4_)F_1.00_
Cell parameters: a: 12.102(2) b: 6.5093(6) c: 10.015(1) alpha: 90 beta: 106.94(1) gamma: 90 volume: 754.7(1) crystal system: monoclinic
x	intensity
5	0
5.22	24.6734
5.44	3.32198
5.66	10.2157
5.88	1.12788
6.1	17.4602
6.32	11.7342
6.54	22.3531
6.76	20.2548
6.98	11.9635
7.2	14.9089
7.42	13.6774
7.64	11.3475
7.86	6.48694
8.08	15.7962
8.3	16.47
8.52	6.08688
8.74	12.0242
8.96	23.1035
9.18	3.0478
9.4	19.8502
9.62	18.1958
9.84	14.3919
10.06	16.9064
10.28	11.306
10.5	23.7042
10.72	13.3803
10.94	16.2407
11.16	13.5329
11.38	26.079
11.6	11.5617
11.82	15.6628
12.04	13.3733
12.26	21.5827
12.48	15.9492
12.7	22.5592
12.92	27.1829
13.14	1.8482
13.36	11.9491
13.58	20.5048
13.8	24.0348
14.02	19.7797
14.24	8.44148
14.46	18.0219
14.68	19.2884
14.9	9.93176
15.12	7.02464
15.34	3.92937
15.56	6.93097
15.78	10.9417
16	31.0664
16.22	21.9375
16.44	14.9588
16.66	21.5082
16.88	10.8903
17.1	11.4715
17.32	14.453
17.54	18.1772
17.76	22.9365
17.98	19.601
18.2	13.9825
18.42	14.0282
18.64	6.45151
18.86	16.333
19.08	20.5794
19.3	10.3603
19.52	23.4721
19.74	44.2129
19.96	15.0872
20.18	23.8429
20.4	21.9185
20.62	13.3992
20.84	22.1973
21.06	23.8542
21.28	39.0294
21.5	11.0089
21.72	7.55161
21.94	31.6912
22.16	24.496
22.38	14.8491
22.6	18.8926
22.82	6.02986
23.04	9.08436
23.26	41.8073
23.48	18.2671
23.7	15.9584
23.92	40.5961
24.14	25.6711
24.36	105.082
24.58	21.1144
24.8	13.5966
25.02	17.3133
25.24	23.6038
25.46	26.5912
25.68	19.5098
25.9	5.77264
26.12	21.2859
26.34	13.4281
26.56	25.7093
26.78	22.4961
27	20.4636
27.22	28.0277
27.44	151.668
27.66	15.0902
27.88	20.6544
28.1	11.3231
28.32	18.305
28.54	10.5883
28.76	0.426277
28.98	16.7865
29.2	34.4053
29.42	39.7001
29.64	22.5446
29.86	12.0665
30.08	9.87711
30.3	3.66834
30.52	16.6717
30.74	17.174
30.96	38.319
31.18	156.363
31.4	13.2881
31.62	22.3648
31.84	18.233
32.06	20.335
32.28	13.6569
32.5	1.36407
32.72	26.6384
32.94	15.2759
33.16	16.4387
33.38	11.1499
33.6	10.8346
33.82	23.4098
34.04	3.28288
34.26	5.83477
34.48	52.5
34.7	11.4426
34.92	3.56265
35.14	21.5943
35.36	17.0402
35.58	36.2715
35.8	22.3512
36.02	17.7601
36.24	39.9643
36.46	4.60185
36.68	37.9149
36.9	23.2878
37.12	15.4895
37.34	10.5604
37.56	3.6143
37.78	42.9882
38	14.9887
38.22	9.4201
38.44	28.9735
38.66	10.9199
38.88	25.192
39.1	23.8371
39.32	21.3611
39.54	4.13318
39.76	18.1743
39.98	25.0081
40.2	14.6336
40.42	11.7596
40.64	29.3858
40.86	36.5097
41.08	16.5828
41.3	6.21085
41.52	2.30925
41.74	7.18785
41.96	40.5773
42.18	34.9982
42.4	20.0398
42.62	22.9531
42.84	65.0551
43.06	17.3394
43.28	16.592
43.5	17.7626
43.72	19.5513
43.94	9.25398
44.16	28.1994
44.38	5.31301
44.6	21.3498
44.82	30.8418
45.04	9.05264
45.26	23.7772
45.48	31.4654
45.7	23.0029
45.92	7.76635
46.14	8.64865
46.36	6.8656
46.58	24.2077
46.8	37.9096
47.02	24.7457
47.24	20.7041
47.46	29.106
47.68	7.80433
47.9	25.058
48.12	10.1232
48.34	8.05749
48.56	0.963211
48.78	4.83829
49	21.7585
49.22	27.2698
49.44	9.95927
49.66	7.60963
49.88	23.2109
50.1	27.7325
50.32	28.5239
50.54	9.80528
50.76	37.5104
50.98	22.8347
51.2	22.702
51.42	6.58017
51.64	15.1973
51.86	39.6029
52.08	35.1399
52.3	12.0026
52.52	21.8744
52.74	30.6376
52.96	9.67677
53.18	15.7756
53.4	29.5808
53.62	0.581642
53.84	4.18897
54.06	19.6595
54.28	31.924
54.5	2.70781
54.72	3.58205
54.94	7.67024
55.16	11.6949
55.38	28.5925
55.6	1.21111
55.82	20.2955
56.04	8.37962
56.26	42.628
56.48	7.49899
56.7	16.7583
56.92	16.8932
57.14	24.7823
57.36	26.9591
57.58	26.983
57.8	14.166
58.02	28.5213
58.24	31.0936
58.46	2.811
58.68	20.0191
58.9	27.1275
59.12	25.2965
59.34	8.05571
59.56	25.3868
59.78	28.0891
60	36.1669
60.22	11.1571
60.44	0.798836
60.66	11.7905
60.88	26.6407
61.1	7.64436
61.32	17.6236
61.54	21.3411
61.76	17.7087
61.98	30.6811
62.2	2.45341
62.42	16.6567
62.64	20.6666
62.86	0.154015
63.08	4.81792
63.3	41.6448
63.52	35.2307
63.74	39.0827
63.96	16.0997
64.18	50.2384
64.4	25.5121
64.62	12.6559
64.84	30.6982
65.06	19.2889
65.28	24.723
65.5	4.79541
65.72	8.43991
65.94	31.1767
66.16	18.3495
66.38	6.31442
66.6	12.0786
66.82	4.00025
67.04	17.5031
67.26	22.2752
67.48	25.1634
67.7	27.0105
67.92	13.3865
68.14	9.0466
68.36	12.4884
68.58	14.5971
68.8	16.5455
69.02	28.2716
69.24	1.83532
69.46	15.5767
69.68	17.958
69.9	19.9793
70.12	25.7611
70.34	24.2633
70.56	4.63892
70.78	24.5743
71	27.0947
71.22	9.63634
71.44	10.362
71.66	9.00266
71.88	15.7455
72.1	27.6688
72.32	1.26504
72.54	5.29184
72.76	4.76372
72.98	14.4673
73.2	6.2916
73.42	20.6944
73.64	28.2218
73.86	21.6331
74.08	34.9884
74.3	20.7175
74.52	24.5954
74.74	17.9234
74.96	5.29687
75.18	11.9828
75.4	9.52132
75.62	23.7662
75.84	20.8758
76.06	18.8577
76.28	17.3631
76.5	10.3472
76.72	28.2139
76.94	20.7469
77.16	8.82574
77.38	23.6206
77.6	5.53801
77.82	33.0413
78.04	14.0273
78.26	13.9994
78.48	7.87331
78.7	29.0856
78.92	31.4872
79.14	4.72913
79.36	5.92741
79.58	16.5192
79.8	17.1636
80.02	24.7597
80.24	23.1791
80.46	37.1698
80.68	6.46809
80.9	10.5415
81.12	13.7327
81.34	4.18476
81.56	28.6764
81.78	21.7728
82	33.8659
82.22	26.3387
82.44	6.24174
82.66	37.2092
82.88	38.7989
83.1	5.0397
83.32	1.90668
83.54	0.183601
83.76	29.0774
83.98	17.3171
84.2	11.5174
84.42	24.9631
84.64	29.5579
84.86	4.71017
85.08	21.949
85.3	15.5202
85.52	7.87472
85.74	19.9416
85.96	7.86246
86.18	16.8676
86.4	10.4382
86.62	13.9275
86.84	5.77522
87.06	24.1214
87.28	4.11038
87.5	30.8659
87.72	23.3123
87.94	11.6438
88.16	29.1632
88.38	21.7313
88.6	21.2354
88.82	24.5852
89.04	30.5014
89.26	33.7918
89.48	48.5523
89.7	17.6331
89.92	27.8622
