Measurement: Powder, Xray Data XY Processed
Mineral: Triphylite
Rruff sample: R050494
Ideal chemistry: LiFe^2+^PO_4_
Locality: Big Chief mine, Glendale, Pennington County, South Dakota, USA
Source: California Institute of Technology
Description: Bluish gray fragment
Diffraction sample description: Powder
Measured chemistry: Li_1.00_(Fe^2+^_0.75_Mn^2+^_0.23_Mg_0.02_)_Î£=1_P_1.00_O_4_ ; Li not measured but estimated by difference
Cell parameters: a: 4.7018(4) b: 10.355(1) c: 6.0251(6) alpha: 90. beta: 90. gamma: 90. volume: 293.38(3) crystal system: orthorhombic
x	intensity
5	0
5.22	14.635
5.44	7.049
5.66	22.949
5.88	12.709
6.1	15.061
6.32	16.263
6.54	7.047
6.76	35.601
6.98	33.004
7.2	11.141
7.42	20.308
7.64	18.974
7.86	32.07
8.08	30.013
8.3	17.541
8.52	0.654
8.74	0.028
8.96	18.113
9.18	22.817
9.4	17.679
9.62	25.831
9.84	18.859
10.06	29.834
10.28	16.702
10.5	23.351
10.72	51.035
10.94	26.424
11.16	19.364
11.38	29.511
11.6	3.581
11.82	3.622
12.04	17.568
12.26	22.181
12.48	16.222
12.7	0.234
12.92	9.634
13.14	23.679
13.36	25.397
13.58	17.706
13.8	1.069
14.02	7.14
14.24	18.416
14.46	17.375
14.68	33.17
14.9	21.287
15.12	28.129
15.34	20.255
15.56	1.727
15.78	1.841
16	12.268
16.22	1.655
16.44	13.567
16.66	13.874
16.88	3.674
17.1	53.507
17.32	8.727
17.54	23.63
17.76	22.132
17.98	17.342
18.2	19.955
18.42	30.827
18.64	31.195
18.86	27.894
19.08	12.848
19.3	2.977
19.52	34.875
19.74	9.651
19.96	20.339
20.18	23.55
20.4	5.139
20.62	5.781
20.84	32.602
21.06	14.586
21.28	10.991
21.5	0.012
21.72	34.222
21.94	40.067
22.16	16.134
22.38	16.542
22.6	45.885
22.82	23.992
23.04	36.29
23.26	30.292
23.48	7.937
23.7	20.641
23.92	40.096
24.14	34.387
24.36	29.22
24.58	6.996
24.8	1.804
25.02	22.579
25.24	21.575
25.46	70.976
25.68	39.937
25.9	3.361
26.12	17.315
26.34	21.433
26.56	33.794
26.78	27.228
27	28.892
27.22	25.233
27.44	29.525
27.66	22.483
27.88	33.573
28.1	32.73
28.32	27.428
28.54	17.947
28.76	16.354
28.98	28.576
29.2	1.057
29.42	15.123
29.64	274.651
29.86	46.819
30.08	11.246
30.3	16.914
30.52	23.394
30.74	36.212
30.96	7.231
31.18	23.269
31.4	23.528
31.62	16.121
31.84	16.394
32.06	33.484
32.28	48.141
32.5	31.103
32.72	18.888
32.94	23.307
33.16	19.348
33.38	7.301
33.6	22.211
33.82	15.156
34.04	17.644
34.26	34.833
34.48	14.515
34.7	35.062
34.92	6.274
35.14	12.137
35.36	29.914
35.58	112.67
35.8	24.189
36.02	19.088
36.24	2.238
36.46	242.697
36.68	15.526
36.9	35.77
37.12	14.231
37.34	25.168
37.56	14.78
37.78	40.518
38	23.434
38.22	3.195
38.44	14.693
38.66	25.143
38.88	24.036
39.1	16.263
39.32	39.767
39.54	38.296
39.76	45.326
39.98	1.54
40.2	26.901
40.42	15.4
40.64	4.401
40.86	15.904
41.08	28.915
41.3	16.675
41.52	5.469
41.74	34.852
41.96	0.996
42.18	43.202
42.4	28.453
42.62	11.578
42.84	11.754
43.06	7.726
43.28	52.323
43.5	27.722
43.72	4.135
43.94	0.829
44.16	22.26
44.38	24.044
44.6	8.48
44.82	12.659
45.04	47.832
45.26	16.025
45.48	16.898
45.7	34.845
45.92	12.774
46.14	9.297
46.36	7.162
46.58	0.152
46.8	26.802
47.02	37.262
47.24	0.211
47.46	29.75
47.68	29.817
47.9	9.154
48.12	33.584
48.34	29.68
48.56	16.676
48.78	17.029
49	24.933
49.22	44.722
49.44	12.355
49.66	22.631
49.88	14.503
50.1	45.914
50.32	24.605
50.54	24.52
50.76	20.848
50.98	9.02
51.2	3.483
51.42	32.542
51.64	27.542
51.86	25.082
52.08	27.416
52.3	23.903
52.52	72.417
52.74	48.112
52.96	18.654
53.18	14.491
53.4	8.78
53.62	14.306
53.84	15.373
54.06	7.435
54.28	11.923
54.5	7.213
54.72	2.135
54.94	19.016
55.16	16.827
55.38	38.376
55.6	31.918
55.82	16.224
56.04	5.445
56.26	35.069
56.48	115.892
56.7	31.209
56.92	0.475
57.14	16.295
57.36	37.989
57.58	6.442
57.8	12.522
58.02	30.515
58.24	15.536
58.46	13.293
58.68	24.851
58.9	5.569
59.12	13.38
59.34	14.35
59.56	26.987
59.78	18.801
60	13.029
60.22	4.171
60.44	8.326
60.66	5.332
60.88	16.406
61.1	15.37
61.32	22.552
61.54	19.966
61.76	38.845
61.98	95.029
62.2	10.993
62.42	13.45
62.64	23.761
62.86	13.48
63.08	16.21
63.3	30.946
63.52	16.108
63.74	38.407
63.96	24.084
64.18	27.508
64.4	9.771
64.62	26.727
64.84	30.573
65.06	3.553
65.28	23.404
65.5	12.481
65.72	9.258
65.94	1.311
66.16	36.386
66.38	28.415
66.6	31.361
66.82	10.662
67.04	18.321
67.26	42.821
67.48	19.943
67.7	19.584
67.92	11.612
68.14	17.929
68.36	9.331
68.58	19.047
68.8	20.399
69.02	18.614
69.24	28.541
69.46	26.891
69.68	1.752
69.9	35.935
70.12	18.665
70.34	22.918
70.56	23.086
70.78	11.999
71	19.4
71.22	29.061
71.44	10.854
71.66	9.507
71.88	16.187
72.1	17.315
72.32	47.37
72.54	9.804
72.76	12.707
72.98	13.015
73.2	12.02
73.42	15.138
73.64	5.497
73.86	13.675
74.08	22.829
74.3	20.998
74.52	15.761
74.74	17.374
74.96	15.21
75.18	9.786
75.4	8.063
75.62	19.131
75.84	27.024
76.06	22.921
76.28	24.028
76.5	34.24
76.72	8.602
76.94	1.717
77.16	18.233
77.38	44.338
77.6	9.313
77.82	18.957
78.04	10.217
78.26	3.597
78.48	19.205
78.7	22.658
78.92	7.08
79.14	9.506
79.36	21.726
79.58	8.859
79.8	15.667
80.02	13.649
80.24	35.933
80.46	19.58
80.68	56.138
80.9	30.56
81.12	6.126
81.34	9.921
81.56	22.906
81.78	18.419
82	31.221
82.22	31.182
82.44	28.554
82.66	12.938
82.88	6.541
83.1	28.842
83.32	21.846
83.54	16.046
83.76	39.091
83.98	40.706
84.2	18.797
84.42	42.528
84.64	13.465
84.86	20.656
85.08	19.379
85.3	32.558
85.52	13.642
85.74	8.498
85.96	15.54
86.18	30.279
86.4	0.153
86.62	23.258
86.84	13.229
87.06	16.045
87.28	10.218
87.5	4.007
87.72	4.05
87.94	19.799
88.16	17.564
88.38	31.938
88.6	26.202
88.82	1.667
89.04	15.402
89.26	5.943
89.48	8.337
89.7	10.476
89.92	20.094
