Measurement: Powder, Xray Data XY Processed
Mineral: Triphylite
Rruff sample: R050624
Ideal chemistry: LiFe^2+^PO_4_
Locality: Minas Gerais, Brazil
Source: Gemological Center
Description: Brown fragment
Diffraction sample description: Powder
Measured chemistry: Li_1.00_(Fe^2+^_0.55_Mn^2+^_0.45_)_Î£=1_P_1.00_O_4_ ; Li not measured, but estimated by difference
Cell parameters: a: 4.7165(9) b: 10.3827(8) c: 6.0468(8) alpha: 90. beta: 90. gamma: 90. volume: 296.11(4) crystal system: orthorhombic
x	intensity
5	0
5.22	2.482
5.44	21.848
5.66	19.764
5.88	2.493
6.1	16.458
6.32	0.876
6.54	7.975
6.76	6.738
6.98	0.781
7.2	11.545
7.42	1.258
7.64	5.961
7.86	10.17
8.08	2.917
8.3	1.949
8.52	13.3
8.74	0.351
8.96	1.631
9.18	23.39
9.4	2.735
9.62	13.158
9.84	8.252
10.06	17.088
10.28	3.603
10.5	27.41
10.72	13.281
10.94	16.967
11.16	8.766
11.38	4.598
11.6	19.365
11.82	15.087
12.04	5.618
12.26	22.224
12.48	18.169
12.7	16.515
12.92	14.118
13.14	1.494
13.36	7.913
13.58	4.81
13.8	1.632
14.02	21.073
14.24	11.863
14.46	18.475
14.68	22.469
14.9	17.329
15.12	2.628
15.34	20.713
15.56	4.786
15.78	24.922
16	18.726
16.22	6.475
16.44	14.096
16.66	4.265
16.88	23.978
17.1	48.837
17.32	17.742
17.54	24.664
17.76	18.232
17.98	6.74
18.2	14.061
18.42	36.346
18.64	15.221
18.86	6.72
19.08	0.513
19.3	10.719
19.52	11.333
19.74	18.378
19.96	10.533
20.18	16.251
20.4	3.593
20.62	52.203
20.84	4.337
21.06	16.425
21.28	17.89
21.5	24.535
21.72	19.667
21.94	16.833
22.16	7.862
22.38	3.166
22.6	26.652
22.82	13.758
23.04	16.274
23.26	18.052
23.48	2.938
23.7	7.261
23.92	37.243
24.14	11.729
24.36	14.12
24.58	0.546
24.8	8.772
25.02	1.609
25.24	12.468
25.46	100.602
25.68	19.922
25.9	9.118
26.12	4.624
26.34	0.338
26.56	20.406
26.78	4.03
27	30.067
27.22	1.355
27.44	18.578
27.66	19.079
27.88	2.712
28.1	1.135
28.32	17.346
28.54	8.698
28.76	13.71
28.98	15.805
29.2	7.393
29.42	21.027
29.64	67.31
29.86	16.263
30.08	32.292
30.3	0.816
30.52	12.514
30.74	2.138
30.96	0.76
31.18	16.776
31.4	26.076
31.62	5.076
31.84	8.148
32.06	55.739
32.28	10.145
32.5	10.187
32.72	8.313
32.94	4.31
33.16	3.71
33.38	35.808
33.6	30.673
33.82	21.108
34.04	19.706
34.26	4.217
34.48	21.195
34.7	11.493
34.92	0.835
35.14	2.283
35.36	85.2
35.58	67.309
35.8	22.864
36.02	3.474
36.24	19.99
36.46	23.263
36.68	12.58
36.9	9.318
37.12	15.711
37.34	9.685
37.56	0.894
37.78	29.041
38	5.74
38.22	22.561
38.44	17.516
38.66	13.295
38.88	16.217
39.1	23.834
39.32	40.127
39.54	26.48
39.76	40.899
39.98	19.924
40.2	11.435
40.42	1.268
40.64	2.55
40.86	5.237
41.08	3.936
41.3	11.995
41.52	8.882
41.74	18.207
41.96	7.318
42.18	46.08
42.4	2.1
42.62	11.048
42.84	6.826
43.06	18.166
43.28	12.14
43.5	22.732
43.72	7.493
43.94	5.416
44.16	29.366
44.38	32.071
44.6	7.934
44.82	19.498
45.04	2.118
45.26	28.538
45.48	12.624
45.7	2.138
45.92	9.761
46.14	0.186
46.36	8.997
46.58	13.704
46.8	16.339
47.02	0.573
47.24	19.04
47.46	20.278
47.68	19.656
47.9	2.061
48.12	27.444
48.34	10.361
48.56	23.614
48.78	0.259
49	20.828
49.22	1.868
49.44	18.108
49.66	13.87
49.88	27.453
50.1	27.734
50.32	14.19
50.54	3.116
50.76	10.206
50.98	8.02
51.2	1.161
51.42	11.171
51.64	22.237
51.86	20.933
52.08	20.333
52.3	64.775
52.52	26.542
52.74	12.211
52.96	9.752
53.18	24.847
53.4	10.517
53.62	19.604
53.84	30.982
54.06	2.889
54.28	1.975
54.5	2.533
54.72	20.981
54.94	6.461
55.16	23.446
55.38	2.593
55.6	7.623
55.82	4.17
56.04	9.231
56.26	22.381
56.48	8.304
56.7	15.383
56.92	33.321
57.14	0.008
57.36	15.47
57.58	25.363
57.8	27.489
58.02	24.771
58.24	10.042
58.46	20.997
58.68	16.845
58.9	22.059
59.12	12.208
59.34	1.4
59.56	8.218
59.78	4.303
60	4.725
60.22	18.878
60.44	2.325
60.66	14.383
60.88	8.885
61.1	1.499
61.32	31.686
61.54	42.212
61.76	30.938
61.98	29.253
62.2	19.246
62.42	45.726
62.64	15.163
62.86	4.864
63.08	12.268
63.3	16.36
63.52	28.83
63.74	6.592
63.96	13.077
64.18	8.355
64.4	10.73
64.62	2.281
64.84	10.357
65.06	18.918
65.28	11.959
65.5	4.847
65.72	18.918
65.94	32.149
66.16	34.098
66.38	16.351
66.6	4.045
66.82	2.807
67.04	9.858
67.26	30.806
67.48	27.053
67.7	10.114
67.92	16.944
68.14	21.907
68.36	14.671
68.58	10.925
68.8	34.944
69.02	1.885
69.24	16.535
69.46	0.437
69.68	21.969
69.9	34.688
70.12	15.616
70.34	16.817
70.56	27.826
70.78	16.034
71	27.943
71.22	4.671
71.44	27.077
71.66	19.345
71.88	29.32
72.1	5.229
72.32	27.226
72.54	16.224
72.76	14.145
72.98	5.668
73.2	20.137
73.42	4.764
73.64	7.316
73.86	23.127
74.08	0.13
74.3	17.081
74.52	17.787
74.74	10.323
74.96	21.823
75.18	11.091
75.4	10.402
75.62	9.27
75.84	22.554
76.06	3.991
76.28	17.63
76.5	11.313
76.72	2.575
76.94	15.165
77.16	16.431
77.38	29.98
77.6	1.024
77.82	26.035
78.04	34.808
78.26	1.327
78.48	16.307
78.7	25.315
78.92	10.368
79.14	1.103
79.36	6.985
79.58	22.738
79.8	0.464
80.02	20.591
80.24	25.261
80.46	10.039
80.68	5.042
80.9	6.039
81.12	23.86
81.34	13.379
81.56	27.756
81.78	18.13
82	5.99
82.22	11.387
82.44	19.292
82.66	1.613
82.88	11.362
83.1	12.576
83.32	29.277
83.54	14.441
83.76	10.997
83.98	0.433
84.2	14.097
84.42	10.854
84.64	1.116
84.86	21.686
85.08	21.598
85.3	26.591
85.52	14.063
85.74	8
85.96	11.585
86.18	7.579
86.4	24.073
86.62	20.964
86.84	40.425
87.06	16.73
87.28	18.146
87.5	27.015
87.72	16.283
87.94	31.419
88.16	9.732
88.38	26.055
88.6	6.968
88.82	17.41
89.04	2.44
89.26	7.329
89.48	1.213
89.7	25.401
89.92	10.462
