Measurement: Powder, Xray Data XY Processed
Mineral: Triphylite
Rruff sample: R050257
Ideal chemistry: LiFe^2+^PO_4_
Locality: Palermo mine, North Groton, Grafton County, New Hampshire, USA
Source: Marcus Origlieri
Description: Dark gray massive
Diffraction sample description: Powder
Measured chemistry: Li_1.00_(Fe^2+^_0.73_Mn^2+^_0.19_Mg_0.08_)_Î£=1_P_1.00_O_4_
Cell parameters: a: 4.7019(5) b: 10.3440(6) c: 6.0142(5) alpha: 90 beta: 90 gamma: 90 volume: 292.51(3) crystal system: orthorhombic
x	intensity
5	0
5.22	12.2539
5.44	31.6729
5.66	0.113754
5.88	14.009
6.1	18.6588
6.32	19.903
6.54	26.0161
6.76	24.5527
6.98	28.5257
7.2	15.9485
7.42	3.95943
7.64	13.4061
7.86	8.3619
8.08	21.1867
8.3	12.3422
8.52	6.69013
8.74	19.7495
8.96	19.388
9.18	19.1827
9.4	2.32132
9.62	15.6771
9.84	1.56519
10.06	24.2574
10.28	41.2427
10.5	14.8574
10.72	25.4915
10.94	28.8181
11.16	5.12295
11.38	41.0493
11.6	6.0883
11.82	25.3376
12.04	17.941
12.26	9.4048
12.48	17.2775
12.7	4.00269
12.92	22.6377
13.14	28.0973
13.36	13.627
13.58	19.525
13.8	0.144058
14.02	12.4374
14.24	15.0619
14.46	16.3502
14.68	8.30338
14.9	35.6358
15.12	30.5405
15.34	15.5257
15.56	8.69717
15.78	16.8479
16	19.33
16.22	17.8436
16.44	10.2746
16.66	24.4966
16.88	5.7203
17.1	46.0379
17.32	14.3198
17.54	17.7261
17.76	18.3554
17.98	32.9905
18.2	22.7821
18.42	2.66109
18.64	11.3824
18.86	29.8065
19.08	20.2997
19.3	13.638
19.52	20.0171
19.74	18.572
19.96	12.3142
20.18	44.5958
20.4	16.5567
20.62	45.1222
20.84	90.3072
21.06	34.973
21.28	15.8852
21.5	17.0025
21.72	21.2576
21.94	20.9725
22.16	11.0158
22.38	7.82945
22.6	22.9863
22.82	22.1868
23.04	20.0641
23.26	5.52634
23.48	8.96107
23.7	24.945
23.92	19.2704
24.14	23.61
24.36	41.4174
24.58	33.9167
24.8	11.6585
25.02	15.786
25.24	22.2909
25.46	40.7085
25.68	80.3939
25.9	32.0464
26.12	31.0638
26.34	4.36105
26.56	19.1109
26.78	30.2825
27	14.2875
27.22	7.02254
27.44	6.13887
27.66	17.4695
27.88	27.538
28.1	1.16817
28.32	3.4509
28.54	22.258
28.76	14.062
28.98	40.8192
29.2	15.9644
29.42	19.5954
29.64	60.4172
29.86	31.9257
30.08	27.49
30.3	2.27729
30.52	0.444366
30.74	13.4751
30.96	21.7769
31.18	14.656
31.4	41.5477
31.62	44.8941
31.84	11.9781
32.06	25.6833
32.28	79.863
32.5	26.3907
32.72	16.0372
32.94	14.6394
33.16	4.74243
33.38	16.834
33.6	8.81496
33.82	11.8127
34.04	22.1628
34.26	1.66707
34.48	30.6515
34.7	22.8919
34.92	18.8547
35.14	13.9943
35.36	3.98469
35.58	234.709
35.8	29.1636
36.02	17.9602
36.24	25.2553
36.46	14.477
36.68	30.4196
36.9	9.46443
37.12	15.8752
37.34	8.66721
37.56	15.3727
37.78	31.4758
38	40.1214
38.22	46.5521
38.44	11.2189
38.66	8.50031
38.88	24.4975
39.1	7.55139
39.32	26.184
39.54	32.9121
39.76	63.9322
39.98	33.2213
40.2	19.3392
40.42	17.7312
40.64	4.10702
40.86	13.9822
41.08	44.0381
41.3	43.759
41.52	14.8359
41.74	33.4652
41.96	41.4461
42.18	61.5495
42.4	10.8564
42.62	0.133743
42.84	13.6374
43.06	10.0324
43.28	37.0393
43.5	21.658
43.72	15.0426
43.94	31.8562
44.16	3.11764
44.38	39.1027
44.6	38.7077
44.82	14.7628
45.04	27.6077
45.26	30.0695
45.48	15.225
45.7	24.3134
45.92	1.77148
46.14	17.9255
46.36	16.2477
46.58	11.6919
46.8	16.9636
47.02	26.5715
47.24	29.2753
47.46	23.1862
47.68	22.7824
47.9	12.2393
48.12	12.861
48.34	21.4411
48.56	37.5245
48.78	9.20077
49	34.6551
49.22	53.6328
49.44	7.97375
49.66	0.507095
49.88	7.56789
50.1	17.3611
50.32	5.10535
50.54	26.1713
50.76	12.0246
50.98	5.27533
51.2	21.7643
51.42	17.6688
51.64	15.8149
51.86	18.8972
52.08	10.1661
52.3	31.8833
52.52	54.1876
52.74	24.6044
52.96	22.7277
53.18	30.5785
53.4	0.823517
53.62	6.97347
53.84	22.6863
54.06	8.50188
54.28	10.2369
54.5	18.519
54.72	11.844
54.94	49.3115
55.16	20.7742
55.38	11.7394
55.6	21.2018
55.82	11.3107
56.04	6.53288
56.26	14.1835
56.48	27.2966
56.7	27.575
56.92	16.3994
57.14	20.2898
57.36	14.6478
57.58	10.7111
57.8	11.6813
58.02	7.25918
58.24	103.843
58.46	28.0626
58.68	1.0173
58.9	16.5228
59.12	22.4737
59.34	35.5948
59.56	11.249
59.78	16.5955
60	6.95957
60.22	13.0206
60.44	6.95283
60.66	8.36385
60.88	41.6861
61.1	21.3757
61.32	10.8023
61.54	12.854
61.76	34.9443
61.98	22.2983
62.2	14.0028
62.42	12.9186
62.64	24.8577
62.86	19.0704
63.08	25.786
63.3	37.4665
63.52	25.3246
63.74	0.640144
63.96	28.6818
64.18	15.7243
64.4	32.0888
64.62	19.9322
64.84	11.2427
65.06	26.015
65.28	41.4374
65.5	9.24476
65.72	22.4362
65.94	23.2652
66.16	43.5689
66.38	11.7119
66.6	7.97349
66.82	1.75972
67.04	17.5646
67.26	14.6184
67.48	24.0548
67.7	25.3391
67.92	6.48543
68.14	19.8071
68.36	6.26194
68.58	2.25139
68.8	7.90793
69.02	21.939
69.24	13.5697
69.46	6.4391
69.68	5.84766
69.9	29.7814
70.12	13.7278
70.34	18.8266
70.56	45.4527
70.78	12.8541
71	10.2169
71.22	24.3434
71.44	3.90109
71.66	10.2893
71.88	32.0773
72.1	43.4514
72.32	61.7719
72.54	22.0308
72.76	11.8089
72.98	35.029
73.2	30.3823
73.42	33.7801
73.64	40.7079
73.86	15.8873
74.08	22.0724
74.3	31.1677
74.52	8.45012
74.74	33.1953
74.96	13.4908
75.18	4.82529
75.4	7.43932
75.62	5.28589
75.84	38.9597
76.06	29.5903
76.28	21.8664
76.5	2.99419
76.72	30.2614
76.94	8.92402
77.16	9.51441
77.38	24.4054
77.6	34.742
77.82	4.36608
78.04	42.8621
78.26	30.7505
78.48	0.699554
78.7	14.6372
78.92	14.6224
79.14	24.8362
79.36	10.5737
79.58	22.401
79.8	30.2348
80.02	13.3683
80.24	9.8065
80.46	25.1059
80.68	34.0454
80.9	26.4278
81.12	33.7913
81.34	25.8769
81.56	9.26961
81.78	35.8848
82	8.17525
82.22	13.8554
82.44	15.2879
82.66	15.2293
82.88	10.125
83.1	25.7148
83.32	40.437
83.54	16.5691
83.76	12.0277
83.98	3.49275
84.2	5.10343
84.42	26.0239
84.64	20.3087
84.86	34.0007
85.08	6.17419
85.3	31.9247
85.52	16.5519
85.74	38.9258
85.96	40.4968
86.18	20.9976
86.4	28.7783
86.62	8.61307
86.84	15.0339
87.06	5.86801
87.28	44.7882
87.5	55.9522
87.72	4.04948
87.94	20.3871
88.16	15.6622
88.38	20.6287
88.6	20.7571
88.82	31.9778
89.04	1.94969
89.26	22.785
89.48	6.21444
89.7	9.23714
89.92	0.66687
