Measurement: Powder, Xray Data XY Processed
Mineral: Triplite
Rruff sample: R060743
Ideal chemistry: Mn^2+^_2_(PO_4_)F
Locality: Shigar Valley, northeast of Skardu, Baltistan, Pakistan
Source: Herb Obodda
Description: Reddish-brown transparent fragment
Diffraction sample description: Powder
Measured chemistry: (Mn^2+^_1.68_Fe^2+^_0.16_Ca_0.16_)_Σ=2_(P_1.00_O_4_)(F_0.71_(OH)_0.29_)_Σ=1_
Cell parameters: a: 13.459(1) b: 6.5147(4) c: 10.1237(8) alpha: 90 beta: 120.094(6) gamma: 90 volume: 767.99(6) crystal system: monoclinic
x	intensity
5	0
5.22	19.5205
5.44	10.5049
5.66	28.6177
5.88	20.3231
6.1	11.635
6.32	6.74128
6.54	5.49457
6.76	6.58151
6.98	13.8869
7.2	6.35337
7.42	5.90298
7.64	3.21318
7.86	19.2726
8.08	5.85698
8.3	11.0886
8.52	16.8694
8.74	22.0792
8.96	23.0479
9.18	7.68254
9.4	16.8526
9.62	5.22302
9.84	15.435
10.06	5.60967
10.28	2.69268
10.5	11.5296
10.72	13.4445
10.94	4.92413
11.16	8.85561
11.38	11.6647
11.6	11.684
11.82	21.0701
12.04	0.512249
12.26	3.00302
12.48	13.1262
12.7	14.823
12.92	12.9725
13.14	27.1882
13.36	6.30241
13.58	12.376
13.8	8.19968
14.02	11.0896
14.24	6.51666
14.46	6.90843
14.68	22.3975
14.9	34.3257
15.12	9.79488
15.34	16.8187
15.56	32.9412
15.78	10.9928
16	2.91924
16.22	16.6699
16.44	7.61331
16.66	24.6475
16.88	1.45228
17.1	11.4689
17.32	11.4554
17.54	12.1059
17.76	13.7607
17.98	10.6087
18.2	2.49997
18.42	11.4661
18.64	0.286297
18.86	14.2999
19.08	9.44604
19.3	20.0856
19.52	5.96174
19.74	2.52576
19.96	1.31888
20.18	2.74155
20.4	15.8519
20.62	23.5268
20.84	8.31176
21.06	18.6005
21.28	14.4168
21.5	22.5507
21.72	10.2233
21.94	14.1015
22.16	17.1981
22.38	25.6819
22.6	5.82725
22.82	14.7404
23.04	17.4767
23.26	2.40813
23.48	15.047
23.7	8.98113
23.92	14.1206
24.14	72.3856
24.36	19.2113
24.58	6.60012
24.8	10.972
25.02	0.087406
25.24	3.68699
25.46	7.8189
25.68	56.0849
25.9	7.81893
26.12	10.3507
26.34	11.7417
26.56	3.47193
26.78	6.89447
27	68.9652
27.22	15.4871
27.44	13.042
27.66	6.37638
27.88	10.4556
28.1	14.1337
28.32	5.2712
28.54	12.3499
28.76	11.9928
28.98	21.3216
29.2	36.7365
29.42	10.8597
29.64	9.04872
29.86	9.07328
30.08	8.06551
30.3	2.24306
30.52	13.4329
30.74	17.297
30.96	25.3718
31.18	81.5669
31.4	7.02568
31.62	9.92406
31.84	2.6395
32.06	14.9667
32.28	3.22323
32.5	13.6007
32.72	5.20542
32.94	6.08427
33.16	25.2786
33.38	17.4781
33.6	17.7276
33.82	21.4868
34.04	31.3866
34.26	17.4663
34.48	19.8192
34.7	15.9938
34.92	8.86131
35.14	11.9254
35.36	12.3707
35.58	38.7193
35.8	22.0382
36.02	2.20787
36.24	12.5648
36.46	3.46923
36.68	10.5576
36.9	15.2164
37.12	15.1795
37.34	16.3512
37.56	6.28091
37.78	11.3088
38	11.8354
38.22	22.9407
38.44	10.0851
38.66	17.3041
38.88	25.6052
39.1	30.6492
39.32	17.5864
39.54	5.86884
39.76	5.56855
39.98	10.2953
40.2	9.55915
40.42	31.8946
40.64	12.4476
40.86	11.5765
41.08	1.09885
41.3	5.80005
41.52	31.6507
41.74	10.599
41.96	12.1791
42.18	6.56944
42.4	12.9592
42.62	26.1355
42.84	7.42241
43.06	2.59704
43.28	6.79922
43.5	22.2694
43.72	1.2143
43.94	4.2976
44.16	43.2807
44.38	16.2994
44.6	13.0701
44.82	16.8509
45.04	20.2611
45.26	11.1424
45.48	13.0902
45.7	23.6452
45.92	5.61607
46.14	18.7523
46.36	16.6147
46.58	23.0796
46.8	21.0973
47.02	5.96983
47.24	40.02
47.46	8.45093
47.68	10.5415
47.9	12.9147
48.12	0.327419
48.34	8.35995
48.56	9.83933
48.78	14.886
49	17.3242
49.22	22.0285
49.44	6.90213
49.66	25.5138
49.88	19.4404
50.1	13.1337
50.32	19.7678
50.54	14.7062
50.76	5.7323
50.98	20.983
51.2	7.60054
51.42	13.2607
51.64	7.64129
51.86	11.9448
52.08	12.487
52.3	8.78538
52.52	9.18871
52.74	14.6236
52.96	17.0517
53.18	0.350418
53.4	25.1356
53.62	18.0508
53.84	18.4254
54.06	10.2847
54.28	8.84285
54.5	10.6333
54.72	5.2561
54.94	5.24478
55.16	15.7038
55.38	19.6365
55.6	37.8196
55.82	19.9003
56.04	6.7495
56.26	6.00899
56.48	17.8938
56.7	17.9121
56.92	25.3273
57.14	0.029858
57.36	7.75013
57.58	15.1093
57.8	12.7947
58.02	8.10258
58.24	2.26852
58.46	18.2478
58.68	8.04943
58.9	18.0372
59.12	11.1528
59.34	19.0524
59.56	3.56451
59.78	11.6877
60	12.7056
60.22	14.6272
60.44	6.16309
60.66	11.4913
60.88	21.0777
61.1	18.1568
61.32	1.48402
61.54	10.4134
61.76	28.0987
61.98	17.2387
62.2	13.4777
62.42	3.0667
62.64	12.8966
62.86	29.7207
63.08	23.4603
63.3	6.4366
63.52	15.4367
63.74	14.9796
63.96	28.9278
64.18	9.49212
64.4	6.52281
64.62	9.94345
64.84	18.1313
65.06	16.7896
65.28	7.90763
65.5	6.59025
65.72	7.47696
65.94	4.41933
66.16	3.61709
66.38	11.0461
66.6	3.82915
66.82	28.6181
67.04	7.94736
67.26	19.08
67.48	4.69559
67.7	14.0993
67.92	9.80215
68.14	26.9473
68.36	27.0375
68.58	12.8155
68.8	22.7528
69.02	4.54993
69.24	6.19117
69.46	11.2468
69.68	8.39225
69.9	13.3554
70.12	10.1952
70.34	11.606
70.56	2.84786
70.78	0.8009
71	21.1634
71.22	5.15036
71.44	7.26468
71.66	13.0437
71.88	29.5939
72.1	13.8911
72.32	16.8722
72.54	7.76544
72.76	13.8249
72.98	19.754
73.2	11.4188
73.42	17.25
73.64	13.6871
73.86	12.7714
74.08	7.45667
74.3	8.54043
74.52	26.8715
74.74	8.17106
74.96	17.0366
75.18	6.4351
75.4	7.5968
75.62	22.0878
75.84	2.5232
76.06	11.8898
76.28	19.3881
76.5	7.2196
76.72	6.5288
76.94	12.7942
77.16	11.6938
77.38	21.7345
77.6	21.2142
77.82	9.57306
78.04	6.91186
78.26	15.352
78.48	11.319
78.7	22.3215
78.92	5.6034
79.14	0.435078
79.36	19.3173
79.58	12.5158
79.8	6.41373
80.02	17.4705
80.24	6.10326
80.46	2.18131
80.68	22.3364
80.9	24.7316
81.12	2.05856
81.34	2.79986
81.56	23.7739
81.78	9.48436
82	2.51238
82.22	15.4116
82.44	25.5632
82.66	15.8247
82.88	4.43825
83.1	15.5153
83.32	11.4324
83.54	5.99118
83.76	16.4901
83.98	6.6366
84.2	8.6293
84.42	14.2072
84.64	28.3496
84.86	14.997
85.08	19.3711
85.3	22.3922
85.52	13.8916
85.74	17.0079
85.96	3.1188
86.18	16.1322
86.4	5.88936
86.62	18.2136
86.84	7.76804
87.06	30.4951
87.28	16.0822
87.5	23.7888
87.72	4.99475
87.94	4.87985
88.16	15.4636
88.38	8.57572
88.6	3.44302
88.82	26.7289
89.04	24.3418
89.26	9.39677
89.48	16.5279
89.7	16.5574
89.92	12.8306
