Measurement: Powder, Xray Data XY Processed
Mineral: Triphylite
Rruff sample: R050424
Ideal chemistry: LiFe^2+^PO_4_
Locality: Karibib, Namibia
Source: John Lucking
Description: Lime-green fine-grained massive
Diffraction sample description: Powder
Measured chemistry: Li_1.00_(Fe^2+^_0.70_Mn^2+^_0.28_Mg_0.02_)_Î£=1_P_1.00_O_4_
Cell parameters: a: 4.7044(6) b: 10.366(2) c: 6.0329(9) alpha: 90 beta: 90 gamma: 90 volume: 294.20(5) crystal system: orthorhombic
x	intensity
5	0
5.22	10.033
5.44	21.6114
5.66	10.4048
5.88	10.1968
6.1	26.1835
6.32	16.8668
6.54	12.7073
6.76	15.2293
6.98	1.14856
7.2	17.0662
7.42	26.5685
7.64	17.1106
7.86	8.38062
8.08	24.7312
8.3	24.6057
8.52	17.8727
8.74	22.7935
8.96	22.2571
9.18	2.04768
9.4	9.16536
9.62	11.6386
9.84	13.3108
10.06	5.12928
10.28	26.9506
10.5	14.1602
10.72	9.68131
10.94	15.1507
11.16	11.6827
11.38	25.443
11.6	32.7857
11.82	17.4784
12.04	13.9929
12.26	16.3201
12.48	16.6043
12.7	2.6612
12.92	30.4423
13.14	12.0427
13.36	25.0852
13.58	29.6535
13.8	20.0176
14.02	17.2871
14.24	20.9281
14.46	10.0077
14.68	11.6572
14.9	1.96742
15.12	17.2911
15.34	11.5695
15.56	21.367
15.78	4.47504
16	17.8547
16.22	17.8056
16.44	13.2636
16.66	0.172203
16.88	12.7179
17.1	99.8044
17.32	5.16625
17.54	35.8588
17.76	8.53793
17.98	17.6343
18.2	16.6566
18.42	11.8914
18.64	24.221
18.86	7.33349
19.08	5.36388
19.3	3.1875
19.52	8.69997
19.74	18.1177
19.96	17.5066
20.18	19.4237
20.4	31.7648
20.62	40.8931
20.84	28.8533
21.06	29.9202
21.28	7.66731
21.5	10.3524
21.72	26.2361
21.94	35.2905
22.16	6.799
22.38	9.67982
22.6	56.0144
22.82	18.5246
23.04	20.3539
23.26	25.487
23.48	18.0557
23.7	30.6993
23.92	24.8318
24.14	0.542854
24.36	9.74593
24.58	5.29036
24.8	6.80458
25.02	14.2954
25.24	22.6848
25.46	136.376
25.68	16.3017
25.9	32.1
26.12	6.64924
26.34	19.1942
26.56	35.2807
26.78	23.6459
27	34.801
27.22	26.434
27.44	14.1974
27.66	40.9591
27.88	0.063515
28.1	9.80796
28.32	5.59899
28.54	37.1022
28.76	6.14819
28.98	23.0238
29.2	5.23389
29.42	23.4495
29.64	112.944
29.86	10.7893
30.08	16.4182
30.3	0.463379
30.52	15.7421
30.74	22.1977
30.96	21.3739
31.18	11.3822
31.4	16.445
31.62	8.85304
31.84	31.5969
32.06	31.512
32.28	35.5012
32.5	15.5248
32.72	1.7872
32.94	1.49386
33.16	4.04414
33.38	5.04904
33.6	4.68562
33.82	7.18671
34.04	26.9106
34.26	15.5657
34.48	5.32967
34.7	13.235
34.92	1.29103
35.14	23.1137
35.36	39.0391
35.58	102.074
35.8	10.3276
36.02	5.55333
36.24	29.4385
36.46	29.7619
36.68	13.8996
36.9	14.1781
37.12	3.77319
37.34	14.955
37.56	31.5078
37.78	42.8343
38	14.3496
38.22	21.5887
38.44	17.581
38.66	27.0042
38.88	11.5391
39.1	19.7007
39.32	23.7414
39.54	40.5446
39.76	31.3733
39.98	13.9697
40.2	15.8941
40.42	23.5659
40.64	0.547569
40.86	41.394
41.08	24.32
41.3	9.88275
41.52	6.99093
41.74	3.56726
41.96	21.1176
42.18	40.5892
42.4	49.3366
42.62	25.0958
42.84	7.55293
43.06	33.6623
43.28	4.42839
43.5	15.05
43.72	14.8997
43.94	18.4209
44.16	50.8918
44.38	17.1763
44.6	23.6567
44.82	10.4245
45.04	25.7513
45.26	33.9983
45.48	6.34221
45.7	3.3565
45.92	18.4204
46.14	2.6757
46.36	6.61986
46.58	5.65844
46.8	17.8418
47.02	7.76862
47.24	26.6442
47.46	18.5711
47.68	14.2307
47.9	29.8023
48.12	25.6014
48.34	17.2628
48.56	23.0974
48.78	1.4006
49	16.041
49.22	53.8218
49.44	5.33201
49.66	2.20811
49.88	2.11716
50.1	25.2379
50.32	25.6037
50.54	26.9113
50.76	2.38013
50.98	22.4459
51.2	15.7833
51.42	26.934
51.64	16.9387
51.86	38.2785
52.08	10.2131
52.3	53.1037
52.52	43.0677
52.74	16.1766
52.96	38.9522
53.18	19.1799
53.4	20.1256
53.62	12.3139
53.84	6.25365
54.06	12.4721
54.28	24.0842
54.5	30.6755
54.72	33.3547
54.94	37.1915
55.16	1.41315
55.38	27.3453
55.6	16.3675
55.82	9.21587
56.04	13.1322
56.26	11.609
56.48	41.802
56.7	31.2532
56.92	47.5639
57.14	2.19484
57.36	34.5407
57.58	8.69359
57.8	22.8282
58.02	36.2832
58.24	33.3918
58.46	19.2648
58.68	25.7604
58.9	9.41375
59.12	41.7358
59.34	9.65068
59.56	5.3625
59.78	14.3367
60	29.5954
60.22	11.1698
60.44	14.3763
60.66	17.9377
60.88	5.54234
61.1	24.6916
61.32	0.53273
61.54	16.4512
61.76	26.0585
61.98	28.4312
62.2	18.6758
62.42	21.6345
62.64	19.0065
62.86	7.79716
63.08	5.24436
63.3	18.1932
63.52	27.284
63.74	11.6054
63.96	21.7787
64.18	12.9314
64.4	1.81484
64.62	41.4743
64.84	13.0559
65.06	28.939
65.28	20.7704
65.5	5.29015
65.72	22.0879
65.94	12.073
66.16	0.350952
66.38	14.355
66.6	14.6741
66.82	24.5727
67.04	23.1616
67.26	18.7703
67.48	20.0356
67.7	30.9498
67.92	38.5214
68.14	3.40929
68.36	21.1488
68.58	15.8791
68.8	1.45223
69.02	13.793
69.24	21.9736
69.46	13.5201
69.68	28.4471
69.9	7.14805
70.12	28.0734
70.34	16.7016
70.56	15.108
70.78	7.97349
71	27.2803
71.22	26.2259
71.44	2.17152
71.66	20.9855
71.88	32.4752
72.1	19.3585
72.32	27.2784
72.54	35.0436
72.76	10.7454
72.98	22.6306
73.2	18.5859
73.42	26.615
73.64	20.278
73.86	28.9255
74.08	13.175
74.3	20.7947
74.52	4.08663
74.74	4.26791
74.96	24.8613
75.18	34.2476
75.4	0.425629
75.62	38.95
75.84	41.9394
76.06	11.015
76.28	1.76056
76.5	35.1563
76.72	0.286331
76.94	10.312
77.16	20.6265
77.38	28.8081
77.6	35.6702
77.82	21.1204
78.04	24.844
78.26	24.9873
78.48	9.28923
78.7	26.0084
78.92	12.499
79.14	31.4094
79.36	21.1821
79.58	28.1403
79.8	15.082
80.02	9.04383
80.24	5.07587
80.46	6.46907
80.68	20.2843
80.9	48.9179
81.12	0.208427
81.34	18.629
81.56	8.11113
81.78	4.68422
82	18.0928
82.22	26.0997
82.44	3.14539
82.66	34.2178
82.88	21.8663
83.1	25.4122
83.32	30.985
83.54	13.3163
83.76	13.934
83.98	11.7796
84.2	0.326042
84.42	12.6799
84.64	22.1728
84.86	12.2373
85.08	13.959
85.3	9.15555
85.52	20.6671
85.74	17.2369
85.96	25.1438
86.18	24.1401
86.4	16.8618
86.62	19.579
86.84	39.5403
87.06	9.69192
87.28	41.149
87.5	15.3578
87.72	1.49492
87.94	5.52862
88.16	18.6131
88.38	13.5253
88.6	12.3043
88.82	5.443
89.04	9.36513
89.26	13.2307
89.48	34.4969
89.7	6.19461
89.92	28.1713
