Measurement: Powder, Xray Data XY Processed
Mineral: Triplite
Rruff sample: R060935
Ideal chemistry: Mn^2+^_2_(PO_4_)F
Locality: near Alchuri, Shigar Valley, Pakistan
Source: Herb Obodda
Description: Red translucent single crystal fragment
Diffraction sample description: Powder
Measured chemistry: (Mn^2+^_1.63_Fe^2+^_0.24_Ca_0.13_)_Σ=2_(P_1.00_O_4_)(F_0.75_(OH)_0.25_)_Σ=1_
Cell parameters: a: 13.422(2) b: 6.5105(5) c: 10.105(1) alpha: 90 beta: 119.975(7) gamma: 90 volume: 764.9(1) crystal system: monoclinic
x	intensity
5	0
5.22	0.124634
5.44	17.8676
5.66	14.3451
5.88	11.1801
6.1	4.57417
6.32	15.8845
6.54	9.18124
6.76	23.8535
6.98	17.2038
7.2	11.146
7.42	22.4595
7.64	11.0857
7.86	9.37043
8.08	10.8906
8.3	7.57908
8.52	8.10085
8.74	5.28653
8.96	20.1679
9.18	15.4629
9.4	1.74992
9.62	6.89259
9.84	13.0068
10.06	18.8904
10.28	28.2048
10.5	0.734089
10.72	7.17968
10.94	11.1613
11.16	10.3852
11.38	12.0445
11.6	8.28047
11.82	10.8029
12.04	13.448
12.26	9.02735
12.48	6.82722
12.7	18.2354
12.92	9.30403
13.14	23.4799
13.36	5.22543
13.58	12.3006
13.8	12.3634
14.02	15.6088
14.24	1.60337
14.46	1.66749
14.68	7.04789
14.9	13.9924
15.12	16.092
15.34	13.1008
15.56	30.8068
15.78	1.57825
16	19.0468
16.22	19.8298
16.44	20.7431
16.66	2.14674
16.88	1.58936
17.1	17.7867
17.32	6.74586
17.54	17.7048
17.76	12.6651
17.98	10.2859
18.2	11.7755
18.42	18.4609
18.64	9.29062
18.86	2.76082
19.08	27.0858
19.3	10.527
19.52	14.7807
19.74	15.8486
19.96	19.9165
20.18	15.2698
20.4	7.03805
20.62	30.7391
20.84	23.8387
21.06	4.72117
21.28	19.8743
21.5	35.6703
21.72	2.63498
21.94	17.1077
22.16	22.9953
22.38	8.80389
22.6	15.0246
22.82	10.3443
23.04	1.01192
23.26	9.80133
23.48	19.1389
23.7	5.28972
23.92	13.0515
24.14	56.8832
24.36	22.9097
24.58	13.7724
24.8	13.7409
25.02	21.8719
25.24	14.8179
25.46	16.4102
25.68	11.9282
25.9	13.8851
26.12	7.561
26.34	6.35941
26.56	23.8178
26.78	10.2701
27	63.2453
27.22	23.8392
27.44	12.4779
27.66	0.360928
27.88	2.14636
28.1	10.9552
28.32	9.75651
28.54	21.7377
28.76	7.86498
28.98	29.2065
29.2	25.652
29.42	24.9458
29.64	0.474491
29.86	15.6044
30.08	9.64669
30.3	13.1607
30.52	22.2642
30.74	29.1091
30.96	43.6722
31.18	84.3807
31.4	2.32467
31.62	8.8131
31.84	17.4303
32.06	5.81122
32.28	14.7567
32.5	18.6929
32.72	6.02191
32.94	6.04669
33.16	10.3644
33.38	18.8249
33.6	16.3976
33.82	19.9209
34.04	20.1303
34.26	18.4672
34.48	13.6591
34.7	29.7838
34.92	5.82407
35.14	11.3388
35.36	17.2524
35.58	26.402
35.8	4.32138
36.02	20.3707
36.24	12.388
36.46	1.22697
36.68	10.6895
36.9	7.539
37.12	11.4041
37.34	13.6982
37.56	13.98
37.78	8.95558
38	9.92848
38.22	23.9002
38.44	11.871
38.66	16.1407
38.88	17.2513
39.1	13.5479
39.32	10.9395
39.54	14.1325
39.76	6.53568
39.98	14.6867
40.2	21.5951
40.42	29.3023
40.64	14.1444
40.86	3.34388
41.08	8.6118
41.3	7.86642
41.52	14.3081
41.74	20.3347
41.96	17.201
42.18	10.4527
42.4	13.7885
42.62	13.084
42.84	8.27727
43.06	26.4898
43.28	8.63839
43.5	8.0499
43.72	14.2213
43.94	16.2749
44.16	17.8205
44.38	29.8379
44.6	6.683
44.82	9.74921
45.04	12.4829
45.26	16.7578
45.48	9.66684
45.7	26.8222
45.92	8.63647
46.14	24.0123
46.36	21.5468
46.58	14.6309
46.8	15.8485
47.02	10.642
47.24	16.3306
47.46	29.2109
47.68	8.3794
47.9	0.878757
48.12	2.69032
48.34	0.155109
48.56	11.2535
48.78	11.9208
49	14.1718
49.22	13.1313
49.44	21.4186
49.66	29.3988
49.88	19.2568
50.1	20.0586
50.32	25.452
50.54	10.1042
50.76	18.3225
50.98	13.3748
51.2	13.8886
51.42	40.0142
51.64	28.0731
51.86	33.0237
52.08	25.6067
52.3	12.4323
52.52	8.08265
52.74	34.7211
52.96	16.5724
53.18	29.5138
53.4	10.1266
53.62	9.88147
53.84	13.2049
54.06	19.2166
54.28	14.3861
54.5	19.687
54.72	19.1933
54.94	8.36851
55.16	17.7326
55.38	0.479637
55.6	16.2957
55.82	22.3688
56.04	13.2758
56.26	11.781
56.48	8.32336
56.7	1.55101
56.92	5.09836
57.14	15.1782
57.36	8.62588
57.58	8.71448
57.8	14.9553
58.02	11.8952
58.24	0.084579
58.46	1.28295
58.68	11.8884
58.9	9.04314
59.12	8.96353
59.34	8.24222
59.56	17.3415
59.78	6.06535
60	15.6017
60.22	23.0958
60.44	25.6232
60.66	10.7244
60.88	16.5837
61.1	7.35777
61.32	12.5129
61.54	18.4809
61.76	13.6673
61.98	22.3091
62.2	7.8859
62.42	10.7823
62.64	17.2875
62.86	23.8315
63.08	11.6267
63.3	27.8498
63.52	13.0337
63.74	24.7146
63.96	16.7035
64.18	16.1499
64.4	12.571
64.62	17.6876
64.84	11.0967
65.06	1.88805
65.28	7.30373
65.5	1.93693
65.72	16.1363
65.94	28.4625
66.16	7.61592
66.38	11.6578
66.6	19.4673
66.82	13.9713
67.04	32.6178
67.26	22.1947
67.48	9.20585
67.7	2.71417
67.92	19.5795
68.14	19.3997
68.36	12.2818
68.58	7.00863
68.8	27.7218
69.02	20.0765
69.24	19.0654
69.46	11.7324
69.68	16.3782
69.9	7.72595
70.12	10.6311
70.34	4.40321
70.56	4.53788
70.78	16.2622
71	18.9271
71.22	21.0177
71.44	4.25328
71.66	21.7642
71.88	9.82303
72.1	5.07645
72.32	14.8742
72.54	24.1837
72.76	19.744
72.98	8.57577
73.2	16.6298
73.42	7.73675
73.64	0.868935
73.86	11.2859
74.08	5.62437
74.3	15.5484
74.52	26.7851
74.74	18.8263
74.96	15.8048
75.18	8.49235
75.4	3.9964
75.62	2.85813
75.84	12.1502
76.06	3.5579
76.28	6.15593
76.5	10.0088
76.72	11.1028
76.94	16.9371
77.16	13.6876
77.38	12.6868
77.6	15.3932
77.82	4.89191
78.04	15.2559
78.26	22.8521
78.48	31.032
78.7	4.26856
78.92	7.79657
79.14	2.13442
79.36	6.86664
79.58	14.1846
79.8	30.3498
80.02	14.3247
80.24	24.5917
80.46	15.5806
80.68	17.4527
80.9	13.8801
81.12	26.8675
81.34	15.1825
81.56	19.1057
81.78	8.93332
82	4.15271
82.22	41.6179
82.44	12.4777
82.66	14.267
82.88	26.407
83.1	7.81884
83.32	14.2936
83.54	6.10302
83.76	7.42581
83.98	4.1591
84.2	20.1149
84.42	16.7889
84.64	15.0899
84.86	21.0988
85.08	23.3004
85.3	1.20172
85.52	21.8014
85.74	5.92683
85.96	3.91481
86.18	5.04641
86.4	4.84067
86.62	6.04822
86.84	1.24804
87.06	8.08767
87.28	10.3199
87.5	17.9244
87.72	19.206
87.94	20.5136
88.16	17.2747
88.38	0.337852
88.6	3.84596
88.82	11.7892
89.04	3.4468
89.26	9.2864
89.48	39.8101
89.7	14.0411
89.92	26.2181
