Measurement: Powder, Xray Data XY Processed
Mineral: Tritomite-(Ce)
Rruff sample: R060046
Ideal chemistry: Ce_5_(SiO_4_,BO_4_)_3_(OH,O)
Locality: Langesundfjord, Norway
Source: University of Arizona Mineral Museum
Description: Aggregate of orange coarse amorphous fragments
Diffraction sample description: Powder
Measured chemistry: (Ca_1.90_Sr_0.10_)_Σ=2_(Ce_0.91_La_0.91_Th_0.75_Zr_0.20_[box]_0.13_Fe^2+^_0.10_)_Σ=3_((SiO_4_)_2.45_(BO_4_)_0.55_)_Σ=3_(OH)
x	intensity
5	0
5.22	8.85971
5.44	8.93633
5.66	25.7216
5.88	1.98741
6.1	11.373
6.32	7.20105
6.54	10.0506
6.76	9.83783
6.98	9.18116
7.2	11.962
7.42	19.0819
7.64	7.1901
7.86	0.015536
8.08	9.69981
8.3	0.402721
8.52	1.07059
8.74	4.34164
8.96	11.6327
9.18	6.41765
9.4	6.6799
9.62	8.07466
9.84	2.01479
10.06	10.9181
10.28	1.06284
10.5	3.43901
10.72	2.56811
10.94	10.805
11.16	2.99531
11.38	8.76914
11.6	3.37297
11.82	8.59552
12.04	4.67209
12.26	6.68316
12.48	2.81544
12.7	4.77242
12.92	7.54035
13.14	0.546789
13.36	2.49127
13.58	8.40482
13.8	8.34856
14.02	3.36992
14.24	7.56984
14.46	8.62097
14.68	4.57207
14.9	4.58263
15.12	0.751698
15.34	4.87165
15.56	4.90403
15.78	1.15505
16	5.22016
16.22	9.34697
16.44	3.23052
16.66	7.01072
16.88	5.76351
17.1	3.70895
17.32	11.5758
17.54	4.42284
17.76	3.41141
17.98	3.35511
18.2	4.08869
18.42	0.9679
18.64	8.73685
18.86	3.30721
19.08	1.35492
19.3	5.73193
19.52	5.59715
19.74	3.90624
19.96	5.93984
20.18	5.80857
20.4	4.74822
20.62	5.93421
20.84	4.35326
21.06	5.51086
21.28	5.54234
21.5	8.73447
21.72	10.5049
21.94	2.55709
22.16	8.39704
22.38	5.16664
22.6	1.08241
22.82	3.45634
23.04	5.89247
23.26	7.33327
23.48	0.892606
23.7	4.82007
23.92	16.3109
24.14	6.08124
24.36	6.94566
24.58	3.75967
24.8	6.56974
25.02	6.29877
25.24	10.0069
25.46	4.73413
25.68	7.36752
25.9	2.99851
26.12	9.41357
26.34	19.1707
26.56	1.16568
26.78	1.96147
27	0.929904
27.22	10.6138
27.44	0.39165
27.66	8.51733
27.88	7.33244
28.1	5.27743
28.32	5.46759
28.54	0.338162
28.76	9.70456
28.98	8.69601
29.2	3.48249
29.42	5.00496
29.64	12.1553
29.86	2.14084
30.08	12.4166
30.3	9.64578
30.52	3.15187
30.74	11.2532
30.96	8.51311
31.18	2.77871
31.4	0.309203
31.62	8.75389
31.84	1.31631
32.06	7.73474
32.28	2.13591
32.5	12.6206
32.72	5.26919
32.94	15.4585
33.16	14.7576
33.38	5.91818
33.6	3.2941
33.82	8.50308
34.04	4.66763
34.26	6.46901
34.48	2.72758
34.7	10.0697
34.92	12.8329
35.14	7.9865
35.36	7.16771
35.58	0.701475
35.8	2.3634
36.02	1.8041
36.24	2.82682
36.46	4.92959
36.68	4.86064
36.9	5.84793
37.12	0.771412
37.34	3.73552
37.56	6.99017
37.78	10.1261
38	9.24339
38.22	1.92832
38.44	3.01993
38.66	7.04216
38.88	3.98672
39.1	8.76962
39.32	8.92286
39.54	2.82167
39.76	6.72864
39.98	6.43892
40.2	5.20023
40.42	2.35656
40.64	8.05697
40.86	3.88476
41.08	1.8601
41.3	5.72827
41.52	8.59217
41.74	2.20785
41.96	10.0705
42.18	4.46609
42.4	2.26664
42.62	6.06583
42.84	6.87568
43.06	6.86329
43.28	7.86906
43.5	5.58716
43.72	9.92462
43.94	4.03823
44.16	4.86308
44.38	7.79189
44.6	15.1899
44.82	5.94993
45.04	2.81421
45.26	1.66726
45.48	0.367058
45.7	9.61799
45.92	4.67895
46.14	7.44069
46.36	8.43527
46.58	1.75633
46.8	3.93242
47.02	3.04633
47.24	9.3796
47.46	10.637
47.68	8.76119
47.9	2.90512
48.12	8.13665
48.34	8.24582
48.56	4.41346
48.78	0.583868
49	4.3098
49.22	1.52692
49.44	7.57567
49.66	3.0432
49.88	3.85577
50.1	3.8288
50.32	7.59974
50.54	13.5405
50.76	5.59596
50.98	5.42796
51.2	0.653931
51.42	7.62631
51.64	2.48253
51.86	7.55194
52.08	1.26381
52.3	8.32228
52.52	9.59998
52.74	3.68407
52.96	4.73149
53.18	6.77493
53.4	1.78326
53.62	3.70998
53.84	6.89798
54.06	7.18655
54.28	3.12151
54.5	7.25506
54.72	1.38867
54.94	8.2844
55.16	4.44821
55.38	8.03725
55.6	8.11443
55.82	4.20489
56.04	7.31505
56.26	8.51623
56.48	6.48822
56.7	10.5745
56.92	11.7373
57.14	3.05984
57.36	4.12595
57.58	2.08379
57.8	4.79041
58.02	2.8279
58.24	8.92416
58.46	0.017438
58.68	6.9475
58.9	5.11329
59.12	1.05606
59.34	5.29565
59.56	8.12521
59.78	0.689776
60	1.39609
60.22	2.47176
60.44	1.49103
60.66	8.45424
60.88	5.46714
61.1	0.486215
61.32	7.40341
61.54	10.4334
61.76	2.20983
61.98	3.21919
62.2	1.8794
62.42	7.26762
62.64	2.30853
62.86	2.57578
63.08	5.55033
63.3	0.582174
63.52	1.53743
63.74	4.39523
63.96	2.36588
64.18	12.5313
64.4	9.6683
64.62	2.74049
64.84	2.64223
65.06	5.46459
65.28	3.31759
65.5	5.38812
65.72	2.5047
65.94	5.74721
66.16	2.82169
66.38	4.13698
66.6	7.03213
66.82	3.13448
67.04	9.16992
67.26	3.30483
67.48	2.28952
67.7	7.39673
67.92	1.36642
68.14	1.08588
68.36	7.04373
68.58	0.992052
68.8	7.09065
69.02	10.9132
69.24	6.81315
69.46	3.72212
69.68	9.71404
69.9	3.68087
70.12	3.69029
70.34	9.63986
70.56	3.59592
70.78	6.75889
71	4.69668
71.22	0.622582
71.44	6.39727
71.66	6.3458
71.88	1.32634
72.1	4.35698
72.32	1.50553
72.54	3.40002
72.76	4.56114
72.98	8.64167
73.2	6.5971
73.42	2.72607
73.64	1.68047
73.86	9.70084
74.08	6.79973
74.3	1.80554
74.52	0.570972
74.74	2.65637
74.96	2.62007
75.18	4.51717
75.4	3.6626
75.62	6.5498
75.84	1.58264
76.06	0.640362
76.28	5.39833
76.5	8.28453
76.72	2.21791
76.94	3.18949
77.16	6.00798
77.38	5.17439
77.6	1.1502
77.82	7.0246
78.04	0.264036
78.26	2.43221
78.48	1.34065
78.7	3.57552
78.92	0.574685
79.14	11.6801
79.36	0.177098
79.58	5.89282
79.8	3.67724
80.02	7.69479
80.24	5.61257
80.46	2.4424
80.68	5.52563
80.9	6.33298
81.12	5.37998
81.34	7.42441
81.56	2.55009
81.78	0.537595
82	14.4138
82.22	4.57235
82.44	1.62061
82.66	0.74418
82.88	2.71489
83.1	4.76106
83.32	3.81107
83.54	1.78064
83.76	3.91419
83.98	5.75083
84.2	7.81305
84.42	10.9638
84.64	7.81823
84.86	3.90618
85.08	0.837173
85.3	3.07217
85.52	3.11524
85.74	6.18935
85.96	6.17868
86.18	4.14551
86.4	0.889622
86.62	5.1697
86.84	3.20504
87.06	5.19133
87.28	7.30583
87.5	8.21384
87.72	5.14797
87.94	4.04026
88.16	4.00861
88.38	13.17
88.6	9.30287
88.82	5.54071
89.04	6.58592
89.26	7.71396
89.48	1.13301
89.7	4.4847
89.92	1.21198
