Measurement: Powder, Xray Data XY Processed
Mineral: Troilite
Rruff sample: R070242
Ideal chemistry: Fe^2+^S^2-^
Locality: Union Mine (Salt Lake-California Mine), Low Divide District, Del Norte County, California, USA
Source: Michael Scott
Description: Fine grained massive, brownish-gray with metallic luster
Diffraction sample description: Powder, using Mo radiation
Cell parameters: a: 5.954(2) b: 5.954(2) c: 11.799(4) alpha: 90 beta: 90 gamma: 120 volume: 362.3(3) crystal system: hexagonal
x	intensity
5.34	0
5.49	4.70423
5.64	8.98076
5.79	10.7699
5.94	4.51199
6.09	0.518449
6.24	10.4274
6.39	9.80317
6.54	15.6023
6.69	8.42109
6.84	19.5401
6.99	30.142
7.14	41.7295
7.29	70.2579
7.44	100.431
7.59	88.9925
7.74	50.7557
7.89	23.1509
8.04	23.8618
8.19	24.3458
8.34	3.27054
8.49	21.9959
8.64	28.5416
8.79	24.2161
8.94	16.6777
9.09	9.1135
9.24	10.4373
9.39	16.6716
9.54	20.2011
9.69	10.4975
9.84	4.04574
9.99	12.7822
10.14	2.67531
10.29	7.16814
10.44	1.72056
10.59	4.149
10.74	1.47066
10.89	6.83111
11.04	1.03472
11.19	9.16823
11.34	7.02279
11.49	2.43731
11.64	3.87066
11.79	5.83883
11.94	3.18329
12.09	0.274777
12.24	7.71487
12.39	6.30753
12.54	24.8985
12.69	23.1261
12.84	17.7955
12.99	9.90389
13.14	20.5454
13.29	3.36446
13.44	34.8036
13.59	69.0313
13.74	77.0299
13.89	114.717
14.04	39.5642
14.19	8.96487
14.34	4.37843
14.49	3.03209
14.64	1.86485
14.79	0.376677
14.94	3.6966
15.09	23.3643
15.24	65.5077
15.39	76.5913
15.54	77.8028
15.69	32.9691
15.84	13.4121
15.99	21.3269
16.14	25.492
16.29	18.5078
16.44	16.0858
16.59	4.76541
16.74	1.21826
16.89	4.70009
17.04	2.43769
17.19	1.08123
17.34	1.20605
17.49	0.665307
17.64	1.42089
17.79	4.50053
17.94	0.416944
18.09	0.469698
18.24	0.730718
18.39	0.727009
18.54	3.59068
18.69	4.00646
18.84	10.02
18.99	29.8368
19.14	47.6226
19.29	109.118
19.44	339.056
19.59	527.213
19.74	323.068
19.89	89.0187
20.04	31.6634
20.19	16.2583
20.34	4.68063
20.49	3.37794
20.64	3.51906
20.79	4.31703
20.94	8.73232
21.09	9.69324
21.24	9.45684
21.39	11.9811
21.54	13.8903
21.69	11.5122
21.84	14.9902
21.99	15.1286
22.14	11.3303
22.29	14.9044
22.44	10.4034
22.59	8.67675
22.74	3.79482
22.89	2.5767
23.04	4.26913
23.19	5.16115
23.34	11.6922
23.49	16.0323
23.64	22.2177
23.79	19.0922
23.94	17.9568
24.09	9.04687
24.24	0.325786
24.39	0.266085
24.54	1.50795
24.69	0.918056
24.84	10.9162
24.99	32.442
25.14	44.5502
25.29	28.9287
25.44	19.7219
25.59	22.5953
25.74	18.3435
25.89	12.4603
26.04	6.37794
26.19	8.54249
26.34	11.5582
26.49	9.54229
26.64	6.74496
26.79	5.29601
26.94	5.65225
27.09	8.26641
27.24	12.9503
27.39	18.0074
27.54	19.9628
27.69	27.9499
27.84	66.4337
27.99	63.3862
28.14	32.4265
28.29	12.2858
28.44	10.1174
28.59	12.5657
28.74	7.11002
28.89	6.79458
29.04	3.0596
29.19	3.34784
29.34	2.16465
29.49	0.209026
29.64	1.00462
29.79	1.30749
29.94	0.550898
30.09	3.48231
30.24	1.16498
30.39	2.32832
30.54	1.5634
30.69	10.4905
30.84	18.935
30.99	31.4083
31.14	51.0703
31.29	47.5718
31.44	28.5888
31.59	10.7838
31.74	11.0375
31.89	15.1345
32.04	11.1852
32.19	15.3776
32.34	19.476
32.49	19.0952
32.64	11.0269
32.79	4.65804
32.94	3.74248
33.09	2.92326
33.24	0.767587
33.39	2.42043
33.54	3.24176
33.69	2.01691
33.84	4.93456
33.99	0.881483
34.14	0.309559
34.29	0.387484
34.44	0.855195
34.59	0.719912
34.74	2.07993
34.89	6.32672
35.04	5.15046
35.19	5.86298
35.34	9.2278
35.49	7.89722
35.64	4.94372
35.79	2.98645
35.94	0.136717
36.09	0.423435
36.24	0.358902
36.39	3.00421
36.54	5.16343
36.69	9.79101
36.84	23.5476
36.99	47.8436
37.14	43.5034
37.29	28.9707
37.44	10.2345
37.59	11.0043
37.74	13.3149
37.89	21.9142
38.04	21.4054
38.19	19.697
38.34	11.5151
38.49	5.62637
38.64	0.124803
38.79	3.03048
38.94	2.03086
39.09	0.259628
39.24	2.89202
39.39	10.5614
39.54	11.3245
39.69	7.19883
39.84	1.94402
39.99	0.021593
40.14	1.33665
40.29	1.9384
40.44	1.34484
40.59	5.48669
40.74	1.58299
40.89	4.13588
41.04	1.2895
41.19	0.834323
41.34	0.064369
41.49	5.60297
41.64	0.292877
41.79	0.309055
41.94	6.29736
42.09	4.02719
42.24	2.54287
42.39	5.50514
42.54	2.82175
42.69	5.77944
42.84	2.68448
42.99	4.15943
43.14	6.77532
43.29	1.72648
43.44	0.821983
43.59	1.67972
43.74	0.460174
43.89	0.804237
44.04	3.69683
44.19	4.57174
44.34	12.67
44.49	12.0076
44.64	18.9944
44.79	19.0094
44.94	14.997
45.09	16.0224
45.24	8.79094
45.39	5.95249
45.54	4.78958
45.69	3.81828
45.84	3.08296
45.99	2.45766
46.14	3.22589
46.29	1.47693
46.44	0.148918
46.59	3.60519
46.74	0.4907
46.89	0.437071
47.04	0.889537
47.19	2.45602
47.34	0.313484
47.49	2.89624
47.64	2.81301
47.79	5.59376
47.94	0.373072
48.09	1.81144
48.24	0.281986
48.39	0.650673
48.54	1.17622
48.69	1.11088
48.84	2.78863
48.99	3.42023
49.14	1.40626
49.29	1.50194
49.44	4.78617
49.59	2.74594
49.74	0.128639
49.89	0.555844
50.04	0.834338
50.19	1.96151
50.34	2.36495
50.49	5.03761
50.64	0.659644
50.79	2.637
50.94	8.90026
51.09	5.09531
51.24	11.3113
51.39	10.9656
51.54	7.48502
51.69	11.0995
51.84	6.92088
51.99	2.67639
52.14	0.909617
52.29	5.51804
52.44	19.9078
52.59	1.72013
52.74	4.38293
52.89	3.81674
53.04	5.93589
53.19	8.21012
53.34	5.4001
53.49	2.61113
53.64	3.72662
53.79	3.47993
53.94	2.31976
54.09	1.52361
54.24	4.18375
54.39	4.28597
54.54	4.70561
54.69	0.358713
54.84	0.513661
54.99	2.59422
55.14	3.38073
55.29	9.1946
55.44	4.11267
55.59	2.76808
55.74	3.88051
55.89	4.38303
