Measurement: Powder, Xray Data XY Processed
Mineral: Trolleite
Rruff sample: R050425
Ideal chemistry: Al_4_(PO_4_)_3_(OH)_3_
Locality: Halsjoberg, Varmland, Sweden
Source: Marcus Origlieri
Description: Pale green granular aggregate
Diffraction sample description: Powder
Measured chemistry: (Al_3.95_Fe^3+^_0.05_)_Î£=4_(P_1.00_O_4_)_3_(OH)_3_
Cell parameters: a: 18.8546(7) b: 7.1641(9) c: 7.1568(2) alpha: 90. beta: 99.972(3) gamma: 90. volume: 952.12(9) crystal system: monoclinic
x	intensity
5	0
5.22	17.8059
5.44	15.5129
5.66	8.79206
5.88	4.43403
6.1	15.7354
6.32	24.6516
6.54	15.8478
6.76	14.6858
6.98	5.93104
7.2	13.9907
7.42	2.7672
7.64	12.5057
7.86	10.0433
8.08	4.58122
8.3	9.85547
8.52	4.79612
8.74	6.75
8.96	4.66503
9.18	11.7591
9.4	8.222
9.62	8.11421
9.84	11.264
10.06	5.90467
10.28	4.68037
10.5	1.07624
10.72	9.2399
10.94	0.090741
11.16	7.11157
11.38	9.05125
11.6	1.01265
11.82	6.00446
12.04	10.868
12.26	4.40805
12.48	7.86312
12.7	4.32642
12.92	7.32957
13.14	19.1947
13.36	33.6919
13.58	10.9533
13.8	11.773
14.02	4.11164
14.24	5.54764
14.46	8.87307
14.68	9.63441
14.9	1.02552
15.12	3.10698
15.34	3.86294
15.56	13.9453
15.78	13.9535
16	4.98867
16.22	1.55797
16.44	8.49223
16.66	3.05578
16.88	6.87968
17.1	0.25528
17.32	12.0359
17.54	7.28726
17.76	36.1409
17.98	9.03808
18.2	9.03791
18.42	1.301
18.64	4.71999
18.86	14.8793
19.08	47.0079
19.3	14.2396
19.52	11.3706
19.74	10.455
19.96	3.02235
20.18	2.19764
20.4	4.80975
20.62	1.95524
20.84	17.2697
21.06	12.1894
21.28	4.56316
21.5	9.79722
21.72	10.7912
21.94	9.00299
22.16	11.2164
22.38	0.539873
22.6	9.80525
22.82	6.36418
23.04	6.18887
23.26	2.41887
23.48	2.2808
23.7	8.13926
23.92	2.75589
24.14	9.6048
24.36	15.2853
24.58	15.9456
24.8	8.5574
25.02	20.2037
25.24	8.66322
25.46	44.7225
25.68	10.4281
25.9	3.24121
26.12	1.99401
26.34	3.71601
26.56	17.0198
26.78	128.333
27	17.5436
27.22	2.24571
27.44	8.2207
27.66	104.294
27.88	531.587
28.1	18.2022
28.32	6.17282
28.54	7.38266
28.76	396.056
28.98	87.6842
29.2	13.5243
29.42	11.2707
29.64	18.1084
29.86	8.88117
30.08	3.8722
30.3	6.56345
30.52	6.08079
30.74	6.44897
30.96	3.43758
31.18	13.3181
31.4	14.6031
31.62	6.70477
31.84	9.73044
32.06	26.7131
32.28	8.09789
32.5	13.043
32.72	5.00357
32.94	8.30772
33.16	1.53286
33.38	8.00585
33.6	0.004763
33.82	10.9365
34.04	9.80038
34.26	12.45
34.48	9.0361
34.7	10.503
34.92	6.04718
35.14	46.8116
35.36	10.06
35.58	63.7442
35.8	77.7719
36.02	16.5908
36.24	8.20904
36.46	8.36168
36.68	10.9573
36.9	0.766418
37.12	1.54801
37.34	4.85965
37.56	0.091602
37.78	0.470701
38	9.55369
38.22	2.8092
38.44	13.0372
38.66	21.1545
38.88	4.27436
39.1	8.06688
39.32	4.05902
39.54	15.9994
39.76	7.95941
39.98	10.8766
40.2	11.6959
40.42	19.7192
40.64	19.579
40.86	39.761
41.08	7.36522
41.3	15.5436
41.52	3.57754
41.74	7.65087
41.96	3.73089
42.18	2.03328
42.4	8.07869
42.62	15.0624
42.84	9.31463
43.06	24.2045
43.28	10.7642
43.5	11.4217
43.72	9.14738
43.94	8.22704
44.16	5.8844
44.38	10.4922
44.6	7.82759
44.82	0.294633
45.04	8.79332
45.26	0.648784
45.48	12.2408
45.7	85.1784
45.92	26
46.14	62.2209
46.36	25.0713
46.58	49.9524
46.8	4.47358
47.02	1.96393
47.24	1.06862
47.46	2.44472
47.68	3.59805
47.9	3.8833
48.12	12.2477
48.34	4.3565
48.56	8.32371
48.78	13.0746
49	10.1173
49.22	5.77233
49.44	7.24826
49.66	2.37813
49.88	16.8598
50.1	2.88042
50.32	26.4808
50.54	6.1706
50.76	72.8609
50.98	8.02591
51.2	16.3571
51.42	13.9639
51.64	13.4617
51.86	3.07737
52.08	0.336692
52.3	5.14962
52.52	12.4842
52.74	12.8305
52.96	10.3194
53.18	9.15029
53.4	8.97988
53.62	1.77682
53.84	4.39508
54.06	6.94815
54.28	3.71555
54.5	4.79376
54.72	26.9765
54.94	28.1133
55.16	18.5855
55.38	12.7774
55.6	5.10017
55.82	8.28714
56.04	8.3796
56.26	7.48868
56.48	2.57272
56.7	8.52872
56.92	4.2781
57.14	15.0269
57.36	29.3681
57.58	56.57
57.8	21.2018
58.02	1.03676
58.24	5.81347
58.46	3.65404
58.68	2.43148
58.9	1.15665
59.12	20.8899
59.34	43.6602
59.56	160.616
59.78	68.1226
60	29.7299
60.22	35.6364
60.44	14.9038
60.66	9.53746
60.88	8.02401
61.1	12.3424
61.32	7.77241
61.54	3.24343
61.76	4.86314
61.98	4.9513
62.2	21.3001
62.42	5.6739
62.64	7.26778
62.86	7.8101
63.08	7.83341
63.3	8.06277
63.52	11.3026
63.74	3.93407
63.96	3.00176
64.18	2.1657
64.4	1.8234
64.62	10.7957
64.84	6.24821
65.06	3.2266
65.28	7.52258
65.5	2.7978
65.72	0.104022
65.94	6.46156
66.16	5.65797
66.38	2.69883
66.6	28.1839
66.82	25.7074
67.04	34.2047
67.26	11.0443
67.48	4.27619
67.7	0.925241
67.92	6.95953
68.14	17.3473
68.36	10.814
68.58	3.47622
68.8	4.97749
69.02	9.43013
69.24	5.73725
69.46	12.1124
69.68	5.34422
69.9	7.39354
70.12	4.59914
70.34	5.1138
70.56	4.28155
70.78	12.3402
71	10.2855
71.22	12.6928
71.44	6.91815
71.66	5.22382
71.88	8.33591
72.1	2.76651
72.32	2.35407
72.54	8.70735
72.76	7.03169
72.98	4.10835
73.2	5.1627
73.42	1.31456
73.64	6.77964
73.86	9.34398
74.08	3.04731
74.3	3.71476
74.52	5.12903
74.74	34.4796
74.96	25.1665
75.18	15.056
75.4	54.8256
75.62	41.5615
75.84	9.85125
76.06	19.9959
76.28	0.567113
76.5	9.78565
76.72	8.09086
76.94	10.5848
77.16	1.88381
77.38	7.459
77.6	4.74645
77.82	6.01866
78.04	9.37414
78.26	1.35821
78.48	6.58279
78.7	5.84761
78.92	1.86151
79.14	11.0726
79.36	11.1874
79.58	5.24441
79.8	17.4439
80.02	6.06317
80.24	8.64545
80.46	6.20352
80.68	5.58858
80.9	10.8462
81.12	8.31311
81.34	10.8719
81.56	8.43315
81.78	10.9305
82	9.56797
82.22	9.175
82.44	9.3916
82.66	3.86776
82.88	13.5188
83.1	9.96806
83.32	6.40725
83.54	5.97969
83.76	13.8276
83.98	4.14092
84.2	11.4769
84.42	7.66196
84.64	2.55062
84.86	5.64822
85.08	6.63993
85.3	4.18883
85.52	0.046021
85.74	2.75138
85.96	12.4265
86.18	7.02358
86.4	1.9011
86.62	15.7273
86.84	20.4982
87.06	10.6859
87.28	15.8952
87.5	2.63723
87.72	4.03662
87.94	4.21401
88.16	6.47884
88.38	0.512852
88.6	10.6287
88.82	4.07444
89.04	13.1625
89.26	5.11688
89.48	5.95093
89.7	0.019516
89.92	5.12922
