Measurement: Powder, Xray Data XY Processed
Mineral: Trona
Rruff sample: R050228
Ideal chemistry: Na_3_(HCO_3_)(CO_3_)2H_2_O
Locality: Stauffer mine, Green River, Wyoming, USA
Source: Marcus Origlieri
Description: Aggregate of pale yellowish brown flattened crystals
Diffraction sample description: Powder
Measured chemistry: Na_3.00_(CO_3_)(HCO_3_)Â·2H_2_O ; CO2 and H not measured but estimated by stoichiometry. The lighter inclusion is dolomite.
Cell parameters: a: 20.4101(9) b: 3.4904(2) c: 10.3297(5) alpha: 90. beta: 106.453(4) gamma: 90. volume: 705.75(4) crystal system: monoclinic
x	intensity
5	0
5.22	7.93809
5.44	7.58872
5.66	4.27277
5.88	7.53625
6.1	3.00763
6.32	8.53819
6.54	10.2816
6.76	12.8436
6.98	10.7944
7.2	8.40256
7.42	9.43926
7.64	5.85813
7.86	5.18884
8.08	6.3168
8.3	2.35643
8.52	8.48571
8.74	12.5341
8.96	174.135
9.18	33.2161
9.4	12.1686
9.62	19.2292
9.84	10.3675
10.06	10.8462
10.28	4.17733
10.5	3.25188
10.72	14.3189
10.94	3.06417
11.16	10.3525
11.38	9.53097
11.6	5.77006
11.82	5.9452
12.04	7.36939
12.26	10.0394
12.48	5.18429
12.7	8.42793
12.92	3.58369
13.14	13.4563
13.36	4.13832
13.58	8.09299
13.8	3.11858
14.02	12.1647
14.24	4.45492
14.46	4.19863
14.68	5.18626
14.9	1.70249
15.12	13.1523
15.34	7.84405
15.56	2.12575
15.78	7.95146
16	1.90263
16.22	7.26657
16.44	3.54465
16.66	11.8234
16.88	3.18429
17.1	0.648766
17.32	1.48876
17.54	8.80981
17.76	11.3109
17.98	42.4558
18.2	535.151
18.42	7.64306
18.64	9.7305
18.86	7.44247
19.08	3.73895
19.3	16.7216
19.52	9.68301
19.74	7.14136
19.96	4.90773
20.18	11.16
20.4	0.019602
20.62	7.72228
20.84	0.602114
21.06	0.869194
21.28	11.6669
21.5	3.04926
21.72	10.9925
21.94	15.6497
22.16	10.6479
22.38	14.7235
22.6	10.2273
22.82	7.17988
23.04	19.0111
23.26	10.3859
23.48	2.41411
23.7	18.3887
23.92	12.4193
24.14	15.2633
24.36	22.1848
24.58	5.79211
24.8	7.3599
25.02	2.07353
25.24	2.21635
25.46	3.64784
25.68	0.215092
25.9	12.4928
26.12	12.0097
26.34	5.54826
26.56	5.36919
26.78	1.76059
27	4.6852
27.22	17.0322
27.44	18.2333
27.66	17.2237
27.88	227.87
28.1	22.38
28.32	14.7393
28.54	11.2029
28.76	14.6981
28.98	126.795
29.2	314.363
29.42	5.74987
29.64	14.9942
29.86	0.646315
30.08	3.03857
30.3	0.414997
30.52	17.0775
30.74	6.72428
30.96	6.2977
31.18	9.94315
31.4	16.0685
31.62	14.769
31.84	4.12431
32.06	17.524
32.28	15.6397
32.5	78.3631
32.72	8.08766
32.94	3.47306
33.16	6.09443
33.38	13.8588
33.6	14.7111
33.82	214.765
34.04	79.9388
34.26	6.68541
34.48	5.46377
34.7	28.1872
34.92	3.29331
35.14	5.49601
35.36	0.364056
35.58	15.6631
35.8	76.6869
36.02	8.93529
36.24	0.899315
36.46	5.55093
36.68	60.9268
36.9	120.357
37.12	55.9383
37.34	15.7568
37.56	8.34015
37.78	6.13166
38	4.85353
38.22	15.7285
38.44	10.4252
38.66	7.83554
38.88	5.72225
39.1	3.96391
39.32	4.31646
39.54	1.58262
39.76	2.63897
39.98	208.993
40.2	28.2457
40.42	2.33074
40.64	0.399344
40.86	10.7408
41.08	11.7936
41.3	6.97665
41.52	6.15444
41.74	12.7606
41.96	7.58327
42.18	35.666
42.4	5.66769
42.62	6.07784
42.84	5.71561
43.06	3.98949
43.28	0.360384
43.5	5.0036
43.72	6.48484
43.94	5.25523
44.16	24.5409
44.38	175.274
44.6	33.9963
44.82	73.9989
45.04	1.25808
45.26	7.54767
45.48	60.8564
45.7	10.506
45.92	5.13683
46.14	30.3923
46.36	119.833
46.58	15.9652
46.8	9.38222
47.02	2.10216
47.24	0.711884
47.46	6.81824
47.68	10.1342
47.9	22.3742
48.12	14.0977
48.34	36.8494
48.56	14.3854
48.78	3.12567
49	11.0286
49.22	19.2173
49.44	13.9605
49.66	7.26657
49.88	3.38384
50.1	4.77456
50.32	1.79698
50.54	13.9635
50.76	5.98612
50.98	6.34791
51.2	7.58317
51.42	30.4381
51.64	17.2014
51.86	17.4286
52.08	1.68593
52.3	8.93257
52.52	94.5855
52.74	13.5429
52.96	12.9404
53.18	10.2132
53.4	14.3932
53.62	9.19662
53.84	5.36272
54.06	3.17177
54.28	2.53116
54.5	5.19027
54.72	21.9261
54.94	7.86487
55.16	4.69687
55.38	53.0951
55.6	17.5333
55.82	18.23
56.04	5.72264
56.26	0.75202
56.48	24.0334
56.7	3.39064
56.92	5.71756
57.14	14.0729
57.36	1.64627
57.58	12.482
57.8	55.8991
58.02	10.6485
58.24	17.5339
58.46	9.43156
58.68	17.6898
58.9	1.97722
59.12	4.15596
59.34	8.61756
59.56	3.77114
59.78	9.84707
60	5.90254
60.22	3.16599
60.44	11.8922
60.66	0.192692
60.88	1.92046
61.1	9.96258
61.32	5.93938
61.54	2.18252
61.76	10.3194
61.98	3.91944
62.2	18.3402
62.42	9.59158
62.64	8.54572
62.86	6.77697
63.08	2.03309
63.3	19.5455
63.52	9.70497
63.74	1.61414
63.96	9.39276
64.18	2.64287
64.4	2.39529
64.62	13.8608
64.84	7.62249
65.06	4.24007
65.28	8.83468
65.5	5.57604
65.72	10.8654
65.94	5.3955
66.16	5.54552
66.38	10.5516
66.6	7.5381
66.82	40.3671
67.04	32.5119
67.26	11.513
67.48	0.218626
67.7	5.23889
67.92	2.52063
68.14	8.84935
68.36	4.88232
68.58	5.30153
68.8	5.96421
69.02	9.37657
69.24	11.6705
69.46	13.2141
69.68	7.46368
69.9	12.6242
70.12	0.458341
70.34	0.596124
70.56	4.44673
70.78	11.7167
71	3.76255
71.22	16.3017
71.44	9.26749
71.66	5.35552
71.88	2.66239
72.1	1.63232
72.32	1.71579
72.54	5.82167
72.76	6.92213
72.98	10.2755
73.2	3.20166
73.42	12.1609
73.64	7.18176
73.86	5.24238
74.08	6.23325
74.3	8.21229
74.52	6.00636
74.74	10.1333
74.96	8.4375
75.18	10.6782
75.4	11.4161
75.62	11.5224
75.84	4.91563
76.06	9.00215
76.28	4.14946
76.5	7.16413
76.72	1.0898
76.94	0.946614
77.16	4.10748
77.38	12.6427
77.6	0.515237
77.82	7.58721
78.04	10.5091
78.26	5.17184
78.48	0.151238
78.7	6.41502
78.92	4.47697
79.14	11.5852
79.36	8.74296
79.58	8.87778
79.8	1.34608
80.02	7.49784
80.24	4.57998
80.46	3.79752
80.68	1.99747
80.9	4.09626
81.12	3.75969
81.34	0.203074
81.56	6.68444
81.78	1.70691
82	6.73161
82.22	7.50615
82.44	4.86537
82.66	1.81571
82.88	9.84259
83.1	6.86572
83.32	5.91499
83.54	1.16382
83.76	0.18428
83.98	12.4477
84.2	1.41156
84.42	9.3383
84.64	7.17749
84.86	4.9897
85.08	6.92331
85.3	5.73308
85.52	3.68624
85.74	10.6669
85.96	7.38467
86.18	7.36028
86.4	7.13187
86.62	2.1707
86.84	4.29172
87.06	8.37884
87.28	0.350372
87.5	2.78703
87.72	5.15874
87.94	5.4142
88.16	12.7745
88.38	5.21831
88.6	8.64979
88.82	3.62622
89.04	11.8845
89.26	6.01186
89.48	8.16312
89.7	4.75267
89.92	7.54871
