Measurement: Powder, Xray Data XY Processed
Mineral: Tschermigite
Rruff sample: R050276
Ideal chemistry: N^3-^H_4_Al(S^6+^O_4_)_2_12H_2_O
Locality: near Wamsutter, Wyoming, USA
Source: Marcus Origlieri
Description: Colorless fibrous columnar aggregate
Diffraction sample description: Powder
Cell parameters: a: 12.2402(1) b: 12.2402(1) c: 12.2402(1) alpha: 90 beta: 90 gamma: 90 volume: 1833.86(6) crystal system: cubic
x	intensity
5	0
5.22	7.26242
5.44	4.56379
5.66	2.93365
5.88	18.3455
6.1	15.1534
6.32	8.8517
6.54	23.4193
6.76	17.2582
6.98	9.94661
7.2	13.8687
7.42	8.77249
7.64	7.42236
7.86	8.14245
8.08	6.77492
8.3	5.98546
8.52	1.36113
8.74	7.13257
8.96	10.5169
9.18	15.416
9.4	8.50176
9.62	10.5357
9.84	10.4763
10.06	10.737
10.28	0.450592
10.5	4.64896
10.72	0.310235
10.94	10.4303
11.16	3.9749
11.38	3.66229
11.6	2.39102
11.82	3.17031
12.04	6.05103
12.26	14.8453
12.48	126.803
12.7	16.6496
12.92	1.68082
13.14	9.67302
13.36	9.52285
13.58	10.5718
13.8	7.43214
14.02	18.6154
14.24	0.771825
14.46	52.6686
14.68	14.4972
14.9	5.20182
15.12	4.13005
15.34	8.81235
15.56	0.397168
15.78	4.79155
16	11.9205
16.22	904.241
16.44	19.4544
16.66	10.3313
16.88	10.2326
17.1	10.1367
17.32	6.38698
17.54	14.6168
17.76	338.705
17.98	17.909
18.2	5.55593
18.42	5.84116
18.64	10.1619
18.86	1.13941
19.08	7.5132
19.3	2.12526
19.52	1.39823
19.74	5.23584
19.96	3.68149
20.18	8.14469
20.4	23.7802
20.62	562.213
20.84	2.40981
21.06	3.36261
21.28	13.3543
21.5	6.73045
21.72	65.388
21.94	42.487
22.16	11.5297
22.38	1.39243
22.6	1.18241
22.82	5.03268
23.04	4.13466
23.26	7.22566
23.48	8.54259
23.7	15.753
23.92	6.68182
24.14	484.157
24.36	16.6454
24.58	23.4002
24.8	1.59205
25.02	12.6578
25.24	1.11853
25.46	10.942
25.68	6.40454
25.9	1.27384
26.12	8.59898
26.34	41.2445
26.56	0.972174
26.78	15.317
27	5.2202
27.22	158.225
27.44	47.2394
27.66	13.9617
27.88	4.07064
28.1	7.05772
28.32	0.18104
28.54	3.00316
28.76	13.1388
28.98	9.88936
29.2	354.712
29.42	15.0175
29.64	9.54126
29.86	4.5947
30.08	82.1933
30.3	12.3159
30.52	10.4551
30.74	11.3299
30.96	38.1587
31.18	9.28185
31.4	8.73825
31.62	5.83615
31.84	112.323
32.06	14.6371
32.28	0.884214
32.5	6.32673
32.72	209.598
32.94	8.82676
33.16	5.4119
33.38	9.71503
33.6	87.5716
33.82	4.10844
34.04	9.55776
34.26	15.1453
34.48	96.5124
34.7	2.95829
34.92	9.37139
35.14	0.490604
35.36	5.32306
35.58	1.44219
35.8	5.72807
36.02	17.8199
36.24	4.7626
36.46	3.24736
36.68	9.61663
36.9	7.06381
37.12	4.88521
37.34	10.8141
37.56	36.0136
37.78	0.418832
38	3.75652
38.22	112.103
38.44	8.08011
38.66	3.92103
38.88	10.0357
39.1	4.10114
39.32	16.2155
39.54	14.4542
39.76	20.5354
39.98	12.4108
40.2	6.50639
40.42	17.0614
40.64	9.86518
40.86	7.94789
41.08	1.01472
41.3	4.07532
41.52	18.0539
41.74	12.1587
41.96	6.07123
42.18	4.72522
42.4	44.0866
42.62	7.27753
42.84	6.5193
43.06	8.27524
43.28	7.91517
43.5	6.5284
43.72	36.1597
43.94	7.83738
44.16	0.518898
44.38	54.4635
44.6	8.379
44.82	11.8425
45.04	58.3405
45.26	14.5596
45.48	3.543
45.7	128.004
45.92	9.25173
46.14	8.78705
46.36	2.96614
46.58	4.93157
46.8	4.24755
47.02	45.2979
47.24	12.3359
47.46	14.2803
47.68	8.20494
47.9	7.31757
48.12	5.56895
48.34	13.6047
48.56	11.5181
48.78	57.6007
49	2.29241
49.22	5.47678
49.44	8.60907
49.66	0.226168
49.88	3.94367
50.1	23.1745
50.32	7.41931
50.54	24.628
50.76	12.1204
50.98	6.46984
51.2	1.77217
51.42	3.29439
51.64	0.426734
51.86	6.715
52.08	2.8607
52.3	0.375589
52.52	9.64073
52.74	8.79467
52.96	4.22004
53.18	8.43707
53.4	19.2698
53.62	27.1846
53.84	7.03845
54.06	19.0245
54.28	10.1605
54.5	13.5006
54.72	13.8373
54.94	0.993958
55.16	7.7553
55.38	0.837255
55.6	6.43006
55.82	1.40876
56.04	3.4869
56.26	51.5003
56.48	5.8547
56.7	15.8843
56.92	32.6686
57.14	2.78071
57.36	2.86978
57.58	8.98987
57.8	9.17619
58.02	32.3322
58.24	0.482717
58.46	1.60032
58.68	5.57925
58.9	16.7677
59.12	5.93943
59.34	7.1026
59.56	6.0513
59.78	2.15283
60	5.33276
60.22	4.24838
60.44	16.2013
60.66	1.88271
60.88	3.26976
61.1	0.122559
61.32	8.78437
61.54	32.566
61.76	17.3058
61.98	8.99405
62.2	8.74589
62.42	7.82668
62.64	8.8128
62.86	3.92616
63.08	17.3773
63.3	4.19998
63.52	1.5897
63.74	3.26461
63.96	4.38681
64.18	4.68883
64.4	2.77843
64.62	22.0833
64.84	14.8094
65.06	3.89074
65.28	1.22699
65.5	7.41696
65.72	0.367331
65.94	1.60262
66.16	11.7604
66.38	8.85742
66.6	10.21
66.82	3.49852
67.04	8.50695
67.26	8.68065
67.48	0.979023
67.7	3.12524
67.92	2.24718
68.14	2.3377
68.36	8.5036
68.58	9.60392
68.8	16.7924
69.02	17.553
69.24	12.4923
69.46	2.54488
69.68	4.64264
69.9	3.47869
70.12	1.4777
70.34	6.42984
70.56	11.42
70.78	8.47585
71	15.2949
71.22	1.07552
71.44	14.9094
71.66	16.9014
71.88	6.74532
72.1	3.68999
72.32	0.330791
72.54	5.60747
72.76	2.80329
72.98	8.69774
73.2	1.57949
73.42	6.07974
73.64	8.16046
73.86	11.3678
74.08	10.4428
74.3	0.6274
74.52	2.64837
74.74	12.0172
74.96	9.22237
75.18	5.49627
75.4	11.7111
75.62	5.54884
75.84	5.63469
76.06	5.9088
76.28	0.14491
76.5	0.66116
76.72	3.59134
76.94	6.64237
77.16	7.46766
77.38	9.2888
77.6	15.8602
77.82	16.0063
78.04	11.8004
78.26	9.49179
78.48	16.3765
78.7	10.4562
78.92	5.38355
79.14	0.303258
79.36	7.11902
79.58	2.16663
79.8	9.24323
80.02	2.25885
80.24	7.19943
80.46	7.24855
80.68	1.33589
80.9	5.48658
81.12	6.5702
81.34	3.66925
81.56	10.7694
81.78	5.99488
82	7.88929
82.22	0.975014
82.44	11.2059
82.66	15.0614
82.88	10.2784
83.1	5.19401
83.32	5.09293
83.54	5.19797
83.76	1.48605
83.98	10.7429
84.2	7.88648
84.42	0.132797
84.64	12.0369
84.86	2.98944
85.08	1.02079
85.3	1.02824
85.52	7.97482
85.74	6.14982
85.96	4.42219
86.18	6.29255
86.4	7.17243
86.62	3.18321
86.84	11.221
87.06	5.22576
87.28	3.27805
87.5	10.4356
87.72	9.40712
87.94	7.45621
88.16	11.6039
88.38	11.595
88.6	3.03336
88.82	2.93886
89.04	1.21029
89.26	8.55428
89.48	8.9519
89.7	6.76603
89.92	8.18883
