Measurement: Powder, Xray Data XY Processed
Mineral: Tungstenite
Rruff sample: R070616
Ideal chemistry: WS_2_
Locality: Emma mine, Little Cottonwood Canyon, Salt Lake County, Utah, USA
Source: James Shigley
Description: Gray metallic massive, X-ray diffraction shows this to be the 3R polytype. Intimately associated with galena
Diffraction sample description: Powder, mixed with galena
Cell parameters: a: 3.1607(6) b: 3.1607(6) c: 18.448(5) alpha: 90 beta: 90 gamma: 120 volume: 159.60(4) crystal system: hexagonal
x	intensity
5	0
5.22	8.75401
5.44	9.81722
5.66	8.57673
5.88	5.54429
6.1	13.8406
6.32	9.21974
6.54	12.0297
6.76	10.0694
6.98	3.76466
7.2	2.60413
7.42	7.76615
7.64	7.41739
7.86	4.73662
8.08	0.241329
8.3	8.0668
8.52	8.80527
8.74	12.0855
8.96	3.67868
9.18	7.13551
9.4	4.633
9.62	12.7161
9.84	14.4459
10.06	11.4721
10.28	1.13026
10.5	6.86585
10.72	5.72156
10.94	15.2628
11.16	1.87724
11.38	15.7439
11.6	21.5137
11.82	11.8023
12.04	7.59341
12.26	18.0507
12.48	13.0443
12.7	5.2644
12.92	24.3752
13.14	0.023279
13.36	2.6213
13.58	22.1261
13.8	20.3716
14.02	90.7481
14.24	440.794
14.46	845.055
14.68	78.4175
14.9	22.2512
15.12	5.83195
15.34	4.35215
15.56	0.015356
15.78	2.91623
16	0.08415
16.22	13.7164
16.44	8.29106
16.66	9.33644
16.88	5.7299
17.1	0.396395
17.32	6.21612
17.54	12.4492
17.76	6.9552
17.98	8.22243
18.2	5.7053
18.42	8.83639
18.64	0.181146
18.86	16.0254
19.08	10.2777
19.3	5.5003
19.52	11.6245
19.74	17.495
19.96	2.49254
20.18	0.555895
20.4	10.5387
20.62	4.66876
20.84	7.65615
21.06	11.3046
21.28	7.10651
21.5	7.96215
21.72	6.94568
21.94	5.02498
22.16	5.56972
22.38	13.0085
22.6	5.86765
22.82	10.018
23.04	1.27674
23.26	14.6299
23.48	10.1117
23.7	11.5678
23.92	6.52181
24.14	5.12028
24.36	7.59839
24.58	7.26091
24.8	3.74428
25.02	4.13301
25.24	9.84805
25.46	11.2748
25.68	10.7288
25.9	19.3705
26.12	76.8004
26.34	9.6157
26.56	18.4052
26.78	7.00558
27	7.01691
27.22	6.98665
27.44	4.82083
27.66	9.20635
27.88	18.0268
28.1	15.6775
28.32	10.0626
28.54	6.81681
28.76	19.7152
28.98	59.5065
29.2	22.6294
29.42	11.3792
29.64	7.06189
29.86	15.8153
30.08	42.3351
30.3	51.8717
30.52	3.48101
30.74	1.07411
30.96	13.406
31.18	4.08473
31.4	11.2039
31.62	2.16562
31.84	14.9569
32.06	6.8849
32.28	13.735
32.5	7.76288
32.72	27.8074
32.94	32.9034
33.16	44.7869
33.38	30.2345
33.6	38.3831
33.82	39.8099
34.04	27.9117
34.26	14.6588
34.48	8.36145
34.7	0.223034
34.92	5.58254
35.14	2.93472
35.36	3.40232
35.58	9.47848
35.8	14.0792
36.02	3.75409
36.24	11.74
36.46	16.7275
36.68	10.8593
36.9	11.4411
37.12	0.507717
37.34	0.769409
37.56	2.71019
37.78	9.74006
38	17.2265
38.22	13.6787
38.44	17.0844
38.66	13.7226
38.88	16.6778
39.1	10.7895
39.32	5.70306
39.54	18.3609
39.76	4.95456
39.98	5.1088
40.2	12.5997
40.42	10.1667
40.64	20.0127
40.86	25.3892
41.08	15.1403
41.3	3.13145
41.52	9.51921
41.74	10.6942
41.96	3.27908
42.18	6.6861
42.4	0.139175
42.62	10.805
42.84	17.6678
43.06	16.5075
43.28	46.8029
43.5	11.7023
43.72	16.5878
43.94	25.6165
44.16	55.1175
44.38	34.7574
44.6	2.5108
44.82	12.3574
45.04	7.46929
45.26	9.4683
45.48	3.66388
45.7	11.7562
45.92	3.51488
46.14	7.0403
46.36	4.55282
46.58	11.1707
46.8	8.6896
47.02	9.09943
47.24	8.41224
47.46	11.8873
47.68	11.7104
47.9	14.1051
48.12	14.1781
48.34	0.550032
48.56	25.8506
48.78	11.6125
49	3.69965
49.22	9.97571
49.44	9.81431
49.66	23.7571
49.88	11.0277
50.1	9.83873
50.32	11.5214
50.54	6.63514
50.76	4.98702
50.98	11.4303
51.2	38.377
51.42	11.3251
51.64	12.1278
51.86	11.8815
52.08	1.72922
52.3	4.5626
52.52	11.0616
52.74	12.7239
52.96	9.34816
53.18	3.81167
53.4	16.3609
53.62	11.5035
53.84	14.0641
54.06	10.1998
54.28	1.54689
54.5	0.232769
54.72	12.8338
54.94	5.19844
55.16	5.47225
55.38	7.02727
55.6	1.07316
55.82	2.56558
56.04	6.53945
56.26	12.1032
56.48	10.821
56.7	8.4778
56.92	5.52808
57.14	8.70523
57.36	19.0411
57.58	9.35406
57.8	4.35451
58.02	8.06494
58.24	18.5682
58.46	16.6948
58.68	7.12033
58.9	3.51088
59.12	5.02629
59.34	0.299419
59.56	1.43296
59.78	15.2872
60	32.2466
60.22	51.8038
60.44	46.0599
60.66	18.9044
60.88	15.3344
61.1	2.80434
61.32	2.43507
61.54	6.95637
61.76	5.49718
61.98	18.044
62.2	6.70916
62.42	10.7278
62.64	12.9251
62.86	8.44285
63.08	6.58318
63.3	13.8896
63.52	4.20098
63.74	22.4595
63.96	16.7334
64.18	2.89652
64.4	5.06854
64.62	14.736
64.84	8.1565
65.06	5.72979
65.28	11.5254
65.5	1.70607
65.72	3.8282
65.94	11.0119
66.16	2.05156
66.38	18.1822
66.6	18.4147
66.82	4.62096
67.04	4.54677
67.26	2.50678
67.48	3.35931
67.7	12.2834
67.92	4.05059
68.14	14.8042
68.36	16.4185
68.58	11.981
68.8	17.3147
69.02	12.0902
69.24	10.4833
69.46	19.1424
69.68	8.38733
69.9	6.24905
70.12	5.04572
70.34	0.148861
70.56	10.0334
70.78	6.05394
71	7.88696
71.22	17.3501
71.44	26.409
71.66	9.41075
71.88	3.49618
72.1	12.304
72.32	9.65808
72.54	7.70709
72.76	9.00081
72.98	8.42025
73.2	4.95752
73.42	8.15034
73.64	6.55513
73.86	3.11068
74.08	10.9323
74.3	3.68957
74.52	8.48712
74.74	8.04897
74.96	1.36596
75.18	7.15771
75.4	7.49241
75.62	16.0795
75.84	17.849
76.06	9.27706
76.28	14.2459
76.5	13.282
76.72	5.13028
76.94	0.914959
77.16	9.14911
77.38	13.3434
77.6	0.445801
77.82	7.66554
78.04	10.5342
78.26	1.50072
78.48	8.072
78.7	11.0983
78.92	8.3523
79.14	16.1132
79.36	11.453
79.58	6.8202
79.8	3.92129
80.02	6.08928
80.24	3.31641
80.46	7.52139
80.68	2.60376
80.9	6.01668
81.12	7.20379
81.34	8.37512
81.56	5.01653
81.78	5.19363
82	15.4996
82.22	4.9545
82.44	6.25277
82.66	9.66664
82.88	4.27752
83.1	5.33412
83.32	5.01546
83.54	4.35328
83.76	2.51131
83.98	4.78516
84.2	5.75908
84.42	1.66799
84.64	14.4448
84.86	16.6799
85.08	2.43372
85.3	13.9859
85.52	6.08593
85.74	3.54409
85.96	7.42708
86.18	5.21266
86.4	10.8755
86.62	4.11231
86.84	1.85556
87.06	1.64931
87.28	7.19278
87.5	4.38868
87.72	12.7652
87.94	7.13724
88.16	5.85965
88.38	10.5426
88.6	6.59918
88.82	11.387
89.04	14.1972
89.26	9.11848
89.48	14.386
89.7	9.10431
89.92	0.031775
