Measurement: Powder, Xray Data XY Processed
Mineral: Turquoise
Rruff sample: R050554
Ideal chemistry: Cu^2+^Al_6_(P^5+^O_4_)_4_(OH)_8_4H_2_O
Locality: Bishop mine, Lynch Station, Campbell County, Virginia, USA
Source: Dave Bunk Minerals
Description: Group of blue bladed crystals
Diffraction sample description: Powder
Measured chemistry: (Cu_0.97_Zn_0.02_Ca_0.01_)_Σ=1_Al_6.00_(P_1.00_O_4_)_4_(OH)_8_·4H_2_O
Cell parameters: a: 7.4157(9) b: 7.6381(5) c: 9.898(1) alpha: 68.486(6) beta: 69.59(1) gamma: 65.143(8) volume: 460.48(5) crystal system: triclinic
x	intensity
5	0
5.22	28.081
5.44	13.307
5.66	20.592
5.88	18.032
6.1	2.077
6.32	14.349
6.54	15.497
6.76	7.307
6.98	2.101
7.2	15.715
7.42	4.86
7.64	17.864
7.86	8.42
8.08	2.872
8.3	0.986
8.52	7.847
8.74	7.213
8.96	7.355
9.18	1.819
9.4	11.01
9.62	1.222
9.84	17.238
10.06	9.227
10.28	6.588
10.5	20.669
10.72	12.927
10.94	11.105
11.16	13.294
11.38	14.336
11.6	5.206
11.82	5.267
12.04	9.726
12.26	22.361
12.48	0.199
12.7	5.359
12.92	20.817
13.14	3.068
13.36	9.327
13.58	27.713
13.8	5.751
14.02	10.1
14.24	14.726
14.46	77.741
14.68	14.239
14.9	42.573
15.12	10.192
15.34	9.975
15.56	6.864
15.78	12.616
16	9.387
16.22	1.8
16.44	11.587
16.66	4.812
16.88	11.975
17.1	7.872
17.32	6.234
17.54	3.939
17.76	4.478
17.98	12.225
18.2	2.016
18.42	16.744
18.64	52.656
18.86	9.819
19.08	13.584
19.3	19.449
19.52	4.586
19.74	6.831
19.96	16.094
20.18	16.182
20.4	3.997
20.62	9.185
20.84	74.285
21.06	25.36
21.28	20.756
21.5	10.192
21.72	9.344
21.94	17.011
22.16	0.948
22.38	1.727
22.6	10.601
22.82	4.403
23.04	10.023
23.26	0.655
23.48	22.157
23.7	4.083
23.92	16.435
24.14	60.04
24.36	149.736
24.58	13.375
24.8	4.014
25.02	3.428
25.24	6.708
25.46	8.93
25.68	20.221
25.9	27.592
26.12	39.857
26.34	13.543
26.56	93.012
26.78	426.298
27	12.881
27.22	67.93
27.44	26.706
27.66	0.796
27.88	13.572
28.1	3.327
28.32	13.027
28.54	7.082
28.76	2.864
28.98	41.541
29.2	10.643
29.42	13.567
29.64	5.546
29.86	3.9
30.08	15.831
30.3	8.841
30.52	5.893
30.74	42.294
30.96	112.257
31.18	46
31.4	11.592
31.62	18.713
31.84	2.703
32.06	1.94
32.28	10.587
32.5	1.176
32.72	3.713
32.94	9.211
33.16	10.566
33.38	7.137
33.6	0.364
33.82	13.536
34.04	0.177
34.26	5.829
34.48	5.336
34.7	3.826
34.92	3.502
35.14	9.389
35.36	1.606
35.58	20.857
35.8	56.366
36.02	3.904
36.24	0.535
36.46	20.041
36.68	43.023
36.9	6.553
37.12	6.164
37.34	13.618
37.56	19.038
37.78	3.503
38	5.781
38.22	19.799
38.44	17.547
38.66	13.868
38.88	15.057
39.1	28.307
39.32	22.964
39.54	56.978
39.76	10.819
39.98	19.632
40.2	13.836
40.42	36.07
40.64	26.513
40.86	7.367
41.08	15.208
41.3	8.429
41.52	16.587
41.74	2.701
41.96	5.681
42.18	2.385
42.4	3.209
42.62	46.362
42.84	32.131
43.06	12.395
43.28	1.271
43.5	11.903
43.72	4.439
43.94	58.089
44.16	22.791
44.38	11.447
44.6	6.079
44.82	20.67
45.04	38.645
45.26	9.95
45.48	13.564
45.7	3.099
45.92	26.857
46.14	6.437
46.36	5.221
46.58	6.761
46.8	0.041
47.02	27.126
47.24	5.164
47.46	11.797
47.68	6.826
47.9	28.1
48.12	9.952
48.34	8.426
48.56	4.36
48.78	9.638
49	9.756
49.22	22.116
49.44	31.627
49.66	21.536
49.88	7.522
50.1	74.143
50.32	59.351
50.54	7.229
50.76	2.722
50.98	7.156
51.2	30.988
51.42	15.905
51.64	7.787
51.86	1.487
52.08	8.159
52.3	11.965
52.52	4.669
52.74	9.331
52.96	11.63
53.18	15.061
53.4	9.566
53.62	4.488
53.84	3.343
54.06	7.168
54.28	4.949
54.5	8.766
54.72	12.002
54.94	48.805
55.16	25.612
55.38	15.903
55.6	0.9
55.82	4.248
56.04	2.146
56.26	19.97
56.48	4.833
56.7	4.732
56.92	13.861
57.14	5.673
57.36	8.101
57.58	6.982
57.8	7.876
58.02	3.096
58.24	14.562
58.46	8.812
58.68	8.806
58.9	16.827
59.12	7.886
59.34	7.092
59.56	7.015
59.78	14.067
60	77.247
60.22	18.428
60.44	1.462
60.66	3.764
60.88	4.01
61.1	7.964
61.32	6.855
61.54	17.024
61.76	19.568
61.98	5.287
62.2	18.337
62.42	11.262
62.64	11.194
62.86	10.936
63.08	13.688
63.3	12.58
63.52	5.972
63.74	18.026
63.96	1.074
64.18	18.095
64.4	12.385
64.62	9.502
64.84	13.595
65.06	12.673
65.28	8.089
65.5	16.57
65.72	21.979
65.94	12.225
66.16	0.575
66.38	12.643
66.6	7.618
66.82	6.506
67.04	9.45
67.26	6.391
67.48	7.347
67.7	12.432
67.92	30.406
68.14	46.756
68.36	64.37
68.58	24.459
68.8	7.352
69.02	12.518
69.24	0.987
69.46	13.109
69.68	6.215
69.9	10.328
70.12	11.798
70.34	12.987
70.56	17.909
70.78	16.252
71	10.049
71.22	6.222
71.44	1.526
71.66	10.279
71.88	13.585
72.1	0.903
72.32	18.197
72.54	14.096
72.76	4.283
72.98	1.827
73.2	7.907
73.42	5.857
73.64	8.979
73.86	3.897
74.08	2.902
74.3	12.709
74.52	2.517
74.74	8.209
74.96	11.021
75.18	11.983
75.4	7.471
75.62	11.099
75.84	31.135
76.06	25.029
76.28	10.493
76.5	9.724
76.72	0.109
76.94	11.065
77.16	5.247
77.38	3.421
77.6	3.38
77.82	12.905
78.04	10.972
78.26	17.857
78.48	12.765
78.7	10.226
78.92	3.995
79.14	1.977
79.36	1.206
79.58	3.721
79.8	10.957
80.02	5.775
80.24	17.229
80.46	6.114
80.68	10.968
80.9	1.08
81.12	10.482
81.34	13.816
81.56	9.44
81.78	16.644
82	9.856
82.22	8.579
82.44	11.908
82.66	4.007
82.88	1.114
83.1	6.216
83.32	3.523
83.54	5.557
83.76	7.593
83.98	20.425
84.2	13.844
84.42	14.889
84.64	12.09
84.86	3.918
85.08	9.038
85.3	11.149
85.52	4.009
85.74	9.809
85.96	4.318
86.18	13.032
86.4	1.11
86.62	5.753
86.84	6.705
87.06	0.218
87.28	10.283
87.5	3.385
87.72	11.733
87.94	11.218
88.16	15.785
88.38	5.178
88.6	3.683
88.82	13.805
89.04	7.513
89.26	7.23
89.48	8.8
89.7	6.44
89.92	5.278
