Measurement: Powder, Xray Data XY Processed
Mineral: Turquoise
Rruff sample: R050225
Ideal chemistry: Cu^2+^Al_6_(P^5+^O_4_)_4_(OH)_8_4H_2_O
Locality: Badger Prospect, Lander County, Nevada, USA
Source: Marcus Origlieri
Description: Light blue massive
Diffraction sample description: Powder
Measured chemistry: Cu_1.00_(Al_5.83_Fe^3+^_0.17_)_Σ=6_(P_1.00_O_4_)_4_(OH)_8_·4H_2_O
Cell parameters: a: 7.401(4) b: 7.639(8) c: 9.948(6) alpha: 68.94(5) beta: 69.46(5) gamma: 64.93(5) volume: 462.1(3) crystal system: triclinic
x	intensity
5	0
5.22	11.4843
5.44	7.14045
5.66	8.19529
5.88	6.21211
6.1	17.1312
6.32	10.7386
6.54	5.9932
6.76	17.3886
6.98	3.89778
7.2	12.1056
7.42	4.06741
7.64	25.9586
7.86	19.4982
8.08	17.8712
8.3	18.6783
8.52	1.44991
8.74	21.6045
8.96	9.35113
9.18	3.31354
9.4	0.059029
9.62	6.54187
9.84	32.763
10.06	21.2845
10.28	8.48234
10.5	16.5251
10.72	14.8911
10.94	9.2922
11.16	7.83183
11.38	13.9782
11.6	4.42986
11.82	16.0657
12.04	7.0392
12.26	0.5116
12.48	15.4212
12.7	21.5376
12.92	20.6533
13.14	67.9785
13.36	14.8699
13.58	9.9572
13.8	7.4552
14.02	18.0408
14.24	27.9737
14.46	38.3084
14.68	15.4108
14.9	13.2186
15.12	27.6408
15.34	30.2276
15.56	9.03716
15.78	10.9962
16	18.8514
16.22	14.5788
16.44	2.51208
16.66	7.78312
16.88	0.298481
17.1	7.19431
17.32	18.9616
17.54	0.736126
17.76	8.05957
17.98	7.75717
18.2	18.8307
18.42	37.7152
18.64	41.0426
18.86	7.65385
19.08	7.82278
19.3	20.8272
19.52	25.1825
19.74	12.1347
19.96	19.1322
20.18	0.198986
20.4	2.1726
20.62	4.3405
20.84	4.21154
21.06	2.20741
21.28	16.0545
21.5	14.5295
21.72	11.6681
21.94	13.6606
22.16	16.3374
22.38	19.0868
22.6	18.7486
22.82	18.8288
23.04	23.3975
23.26	15.8042
23.48	15.3038
23.7	11.8035
23.92	40.2859
24.14	198.269
24.36	55.7824
24.58	18.2372
24.8	1.56911
25.02	14.7616
25.24	3.94144
25.46	23.2167
25.68	4.98614
25.9	74.3258
26.12	60.0048
26.34	11.082
26.56	19.0532
26.78	5.33628
27	17.6134
27.22	42.2207
27.44	23.7081
27.66	12.5995
27.88	30.3269
28.1	4.11202
28.32	11.68
28.54	6.49986
28.76	7.83288
28.98	13.1774
29.2	6.28722
29.42	11.9176
29.64	5.99901
29.86	3.30742
30.08	9.45201
30.3	19.8225
30.52	24.1845
30.74	135.232
30.96	48.7764
31.18	21.2763
31.4	2.0665
31.62	10.0425
31.84	13.9856
32.06	14.4674
32.28	11.6646
32.5	3.59885
32.72	19.7627
32.94	23.9075
33.16	14.1611
33.38	9.72058
33.6	10.4243
33.82	14.7104
34.04	21.3544
34.26	9.48486
34.48	15.8751
34.7	6.80616
34.92	18.8207
35.14	2.34188
35.36	15.595
35.58	20.5682
35.8	24.4728
36.02	3.67993
36.24	12.9003
36.46	6.91991
36.68	3.16021
36.9	24.4098
37.12	12.5707
37.34	14.3155
37.56	13.6792
37.78	14.4439
38	8.52013
38.22	21.2693
38.44	4.87045
38.66	0.904839
38.88	15.5111
39.1	11.5706
39.32	7.92024
39.54	4.64194
39.76	4.40775
39.98	0.061573
40.2	8.33933
40.42	26.8665
40.64	12.1072
40.86	7.35255
41.08	9.15169
41.3	5.0894
41.52	3.98349
41.74	10.2268
41.96	1.5364
42.18	9.57253
42.4	18.5695
42.62	9.04057
42.84	13.7933
43.06	9.03177
43.28	7.62801
43.5	20.2709
43.72	27.1351
43.94	17.1487
44.16	6.20624
44.38	1.1232
44.6	10.896
44.82	13.1943
45.04	26.5705
45.26	17.8527
45.48	13.8052
45.7	22.85
45.92	2.21922
46.14	6.48114
46.36	9.09823
46.58	15.9438
46.8	9.00241
47.02	11.9638
47.24	8.00071
47.46	3.62236
47.68	12.4849
47.9	3.42474
48.12	15.3122
48.34	8.28367
48.56	16.8603
48.78	17.651
49	17.6114
49.22	19.2432
49.44	26.1191
49.66	26.3583
49.88	9.72863
50.1	12.1131
50.32	12.5163
50.54	7.94896
50.76	8.48366
50.98	6.85131
51.2	12.7371
51.42	9.23396
51.64	18.287
51.86	0.38242
52.08	17.5963
52.3	6.43421
52.52	1.61048
52.74	12.6048
52.96	23.0508
53.18	6.36671
53.4	13.2862
53.62	9.23371
53.84	12.6389
54.06	10.4595
54.28	7.46019
54.5	9.90738
54.72	9.51966
54.94	4.49188
55.16	6.4175
55.38	12.9192
55.6	1.26835
55.82	9.0935
56.04	10.1097
56.26	11.9631
56.48	5.05243
56.7	15.1749
56.92	7.18663
57.14	6.27607
57.36	13.2373
57.58	0.218609
57.8	8.19399
58.02	3.00125
58.24	10.8169
58.46	10.7251
58.68	1.71482
58.9	5.96292
59.12	13.0307
59.34	16.5814
59.56	16.9325
59.78	19.1731
60	9.21536
60.22	1.35065
60.44	6.59644
60.66	9.61917
60.88	12.7308
61.1	17.2239
61.32	2.97607
61.54	13.8085
61.76	1.75026
61.98	0.373259
62.2	10.4882
62.42	8.57924
62.64	10.779
62.86	4.03125
63.08	9.1407
63.3	9.69581
63.52	12.2728
63.74	15.7666
63.96	6.93659
64.18	4.12995
64.4	9.86991
64.62	1.97458
64.84	1.9548
65.06	13.1918
65.28	11.9817
65.5	14.2634
65.72	10.5207
65.94	6.33811
66.16	4.26823
66.38	1.45943
66.6	0.098328
66.82	7.2334
67.04	7.43979
67.26	4.06333
67.48	6.15136
67.7	12.3213
67.92	5.20609
68.14	10.3854
68.36	9.52313
68.58	6.71713
68.8	6.62743
69.02	8.35275
69.24	11.395
69.46	8.20319
69.68	7.7036
69.9	14.7456
70.12	10.8759
70.34	12.7276
70.56	9.37714
70.78	7.37652
71	5.50057
71.22	5.78513
71.44	0.002607
71.66	7.15326
71.88	0.756733
72.1	10.4469
72.32	9.89621
72.54	15.8752
72.76	7.08089
72.98	4.05541
73.2	9.14042
73.42	2.13833
73.64	4.16498
73.86	2.11572
74.08	9.06437
74.3	5.81256
74.52	7.36964
74.74	2.97217
74.96	9.50455
75.18	5.60852
75.4	9.77847
75.62	7.03743
75.84	11.2124
76.06	5.25097
76.28	6.35267
76.5	5.38765
76.72	5.3703
76.94	9.6538
77.16	6.79917
77.38	6.55994
77.6	4.73157
77.82	3.40183
78.04	16.3137
78.26	13.5179
78.48	7.69107
78.7	11.763
78.92	9.241
79.14	0.451649
79.36	7.42783
79.58	17.5345
79.8	0.488745
80.02	2.29339
80.24	7.99167
80.46	12.2127
80.68	14.1989
80.9	11.5013
81.12	6.68564
81.34	8.64264
81.56	3.78094
81.78	12.8908
82	4.93361
82.22	5.82462
82.44	8.05471
82.66	2.27402
82.88	8.80618
83.1	9.83722
83.32	4.69363
83.54	5.88462
83.76	8.0523
83.98	11.1569
84.2	14.2646
84.42	8.48745
84.64	13.5536
84.86	12.6952
85.08	11.7134
85.3	9.60961
85.52	8.58972
85.74	5.41978
85.96	12.6091
86.18	4.30676
86.4	2.3331
86.62	2.29572
86.84	4.78895
87.06	0.241807
87.28	4.16321
87.5	7.41571
87.72	7.85309
87.94	0.9891
88.16	6.33927
88.38	7.31965
88.6	5.4873
88.82	2.68812
89.04	8.98489
89.26	0.883913
89.48	12.5296
89.7	6.0008
89.92	3.93397
