Measurement: Powder, Xray Data XY Processed
Mineral: Ulexite
Rruff sample: R050491
Ideal chemistry: NaCaB_5_O_6_(OH)_6_5H_2_O
Locality: Open Pit mine, Boron, Kern County, California, USA
Source: California Institute of Technology
Description: Colorless fragment
Diffraction sample description: Powder
Cell parameters: a: 8.8058(6) b: 12.8555(9) c: 6.6648(7) alpha: 90.295(5) beta: 109.077(7) gamma: 105.035(7) volume: 685.29(6) crystal system: triclinic
x	intensity
5	0
5.22	22.3855
5.44	2.83013
5.66	3.57126
5.88	13.9809
6.1	3.76169
6.32	0.029367
6.54	5.11954
6.76	27.3574
6.98	97.8245
7.2	80.8051
7.42	17.6756
7.64	12.4412
7.86	1.49723
8.08	2.47303
8.3	9.68808
8.52	1.63997
8.74	14.2887
8.96	0.657507
9.18	6.78552
9.4	5.0984
9.62	4.29307
9.84	3.05549
10.06	1.229
10.28	13.5798
10.5	13.8222
10.72	5.34912
10.94	33.2092
11.16	25.5117
11.38	674.508
11.6	12.7552
11.82	9.94297
12.04	1.97951
12.26	11.635
12.48	2.95916
12.7	14.6623
12.92	2.59678
13.14	1.54392
13.36	8.57814
13.58	13.0962
13.8	2.97214
14.02	5.6921
14.24	13.3017
14.46	11.8734
14.68	118.382
14.9	16.7435
15.12	65.5185
15.34	4.42087
15.56	59.8516
15.78	5.09958
16	5.43703
16.22	5.86485
16.44	34.3391
16.66	4.97476
16.88	5.92452
17.1	14.3837
17.32	9.18387
17.54	2.35759
17.76	4.59233
17.98	8.36687
18.2	10.2388
18.42	8.06317
18.64	0.278259
18.86	4.16887
19.08	58.3016
19.3	29.3474
19.52	11.5024
19.74	4.89835
19.96	1.07744
20.18	8.15089
20.4	144.524
20.62	3.03286
20.84	10.618
21.06	1.8044
21.28	76.6933
21.5	44.099
21.72	28.4737
21.94	16.2265
22.16	27.5833
22.38	9.99157
22.6	0.477708
22.82	7.89046
23.04	2.29002
23.26	10.8789
23.48	6.99532
23.7	9.57122
23.92	7.43039
24.14	7.52173
24.36	5.78963
24.58	8.78651
24.8	21.0385
25.02	18.3692
25.24	16.4118
25.46	2.03862
25.68	3.66828
25.9	9.38763
26.12	5.60297
26.34	5.16426
26.56	9.31292
26.78	9.55368
27	12.7315
27.22	17.1061
27.44	0.338167
27.66	186.08
27.88	69.2583
28.1	5.84407
28.32	0.231348
28.54	19.8952
28.76	35.5715
28.98	23.0465
29.2	14.8984
29.42	19.678
29.64	99.2938
29.86	17.7779
30.08	6.1197
30.3	20.2857
30.52	30.1412
30.74	39.5673
30.96	8.58915
31.18	1.85196
31.4	38.5
31.62	31.8834
31.84	10.5085
32.06	1.03748
32.28	56.7469
32.5	10.3603
32.72	6.1025
32.94	3.09093
33.16	27.3814
33.38	12.2728
33.6	100.273
33.82	55.0457
34.04	12.3943
34.26	16.3178
34.48	55.6345
34.7	31.6329
34.92	30.5491
35.14	6.605
35.36	15.3748
35.58	5.96565
35.8	0.476105
36.02	17.2931
36.24	8.03888
36.46	5.15146
36.68	1.64106
36.9	5.74456
37.12	18.7811
37.34	8.05102
37.56	4.31267
37.78	11.2773
38	8.49644
38.22	12.0109
38.44	1.01763
38.66	6.87388
38.88	14.1087
39.1	14.8761
39.32	14.2909
39.54	5.07973
39.76	13.8751
39.98	7.41572
40.2	4.26156
40.42	22.1377
40.64	2.01292
40.86	5.09433
41.08	24.3978
41.3	16.5995
41.52	16.8828
41.74	12.3077
41.96	8.17411
42.18	3.07981
42.4	15.2999
42.62	0.034487
42.84	8.48973
43.06	12.5909
43.28	20.4101
43.5	14.2376
43.72	38.286
43.94	23.0852
44.16	9.79694
44.38	7.63932
44.6	19.7002
44.82	28.2405
45.04	8.53734
45.26	13.8469
45.48	1.89682
45.7	14.343
45.92	9.83255
46.14	33.4453
46.36	0.393644
46.58	1.60563
46.8	14.1747
47.02	22.4383
47.24	11.8401
47.46	6.0792
47.68	7.43054
47.9	1.02376
48.12	13.5829
48.34	15.912
48.56	24.4805
48.78	6.50847
49	5.67059
49.22	6.60917
49.44	5.58685
49.66	14.623
49.88	5.5189
50.1	2.5232
50.32	3.82667
50.54	1.43979
50.76	7.69581
50.98	15.4185
51.2	8.15805
51.42	10.1173
51.64	2.5128
51.86	1.17206
52.08	10.9757
52.3	17.3398
52.52	6.63336
52.74	0.797919
52.96	2.63765
53.18	2.77741
53.4	22.1757
53.62	7.70327
53.84	9.26039
54.06	6.09873
54.28	11.62
54.5	1.80372
54.72	3.34691
54.94	3.45872
55.16	18.3729
55.38	2.46142
55.6	0.582562
55.82	8.62874
56.04	10.8619
56.26	3.6932
56.48	1.77618
56.7	2.23383
56.92	1.34005
57.14	8.38194
57.36	9.65749
57.58	7.71279
57.8	9.79166
58.02	7.72449
58.24	8.76983
58.46	7.36613
58.68	18.4313
58.9	5.43321
59.12	2.00856
59.34	1.08796
59.56	6.10608
59.78	9.04804
60	5.08936
60.22	7.21998
60.44	2.68963
60.66	0.615344
60.88	0.735517
61.1	5.73243
61.32	12.9153
61.54	6.83191
61.76	6.7928
61.98	4.5533
62.2	3.39199
62.42	1.44344
62.64	6.36605
62.86	8.51945
63.08	7.70424
63.3	13.4338
63.52	2.37122
63.74	6.32677
63.96	4.36886
64.18	8.43925
64.4	9.60926
64.62	10.7038
64.84	10.7209
65.06	4.0214
65.28	12.0519
65.5	8.09824
65.72	1.45229
65.94	0.5989
66.16	2.60737
66.38	4.72719
66.6	5.76365
66.82	1.0377
67.04	2.15575
67.26	8.19825
67.48	0.069112
67.7	9.04155
67.92	5.8664
68.14	4.85283
68.36	8.95469
68.58	8.07589
68.8	5.23901
69.02	4.30994
69.24	4.16769
69.46	4.4557
69.68	7.54806
69.9	7.50638
70.12	5.97194
70.34	14.0998
70.56	2.03276
70.78	0.005239
71	7.93504
71.22	11.7143
71.44	5.6749
71.66	6.54619
71.88	2.43216
72.1	8.78166
72.32	15.8104
72.54	2.46991
72.76	2.41208
72.98	6.73221
73.2	5.87532
73.42	9.895
73.64	9.20171
73.86	0.690974
74.08	9.41103
74.3	13.1055
74.52	4.16643
74.74	6.48381
74.96	2.42261
75.18	9.36403
75.4	9.30173
75.62	4.22671
75.84	11.3076
76.06	5.22174
76.28	2.1649
76.5	0.885139
76.72	14.0162
76.94	4.14258
77.16	6.81874
77.38	7.8248
77.6	7.88561
77.82	7.76492
78.04	10.7598
78.26	7.62943
78.48	0.339571
78.7	4.93715
78.92	1.13436
79.14	6.23173
79.36	8.13697
79.58	7.29795
79.8	4.4508
80.02	0.379536
80.24	0.567465
80.46	4.42305
80.68	2.63628
80.9	0.690568
81.12	12.7178
81.34	11.695
81.56	6.78454
81.78	4.72418
82	1.1927
82.22	0.794185
82.44	2.9079
82.66	6.2466
82.88	3.29876
83.1	8.34982
83.32	5.44724
83.54	5.61083
83.76	1.60949
83.98	1.56134
84.2	4.64126
84.42	2.57337
84.64	0.477921
84.86	3.50081
85.08	0.400465
85.3	6.37573
85.52	6.32492
85.74	2.26429
85.96	3.59327
86.18	6.68042
86.4	8.82888
86.62	4.84791
86.84	2.95164
87.06	0.887996
87.28	5.11417
87.5	4.98844
87.72	0.004593
87.94	4.98153
88.16	3.69856
88.38	6.59906
88.6	4.69935
88.82	5.65765
89.04	4.64832
89.26	0.633333
89.48	9.85803
89.7	4.39864
89.92	0.524535
