Measurement: Powder, Xray Data XY Processed
Mineral: Ullmannite
Rruff sample: R050247
Ideal chemistry: NiSbS
Locality: Salchendorf, Siegerland, North Rhine-Westphalia, Germany
Source: Marcus Origlieri
Description: Steel gray massive
Diffraction sample description: Powder
Measured chemistry: Ni_1.00_(Sb_0.78_As_0.22_)S_1.00_
Cell parameters: a: 5.8858(3) b: 5.8858(3) c: 5.8858(3) alpha: 90 beta: 90 gamma: 90 volume: 203.90(3) crystal system: cubic
x	intensity
5	0
5.22	7.17797
5.44	4.93471
5.66	7.6126
5.88	15.9162
6.1	1.64144
6.32	10.617
6.54	16.3108
6.76	4.91371
6.98	3.79766
7.2	17.4632
7.42	10.3269
7.64	12.7103
7.86	7.40648
8.08	11.5087
8.3	8.64664
8.52	3.6206
8.74	0.75164
8.96	12.0043
9.18	3.25865
9.4	11.1125
9.62	4.88106
9.84	12.8649
10.06	2.08702
10.28	2.08198
10.5	12.6586
10.72	9.17425
10.94	0.259577
11.16	3.19427
11.38	17.9819
11.6	11.5806
11.82	18.4885
12.04	4.7915
12.26	8.65553
12.48	8.41402
12.7	12.4709
12.92	2.54503
13.14	11.7753
13.36	4.40852
13.58	6.37203
13.8	7.32001
14.02	20.2676
14.24	5.26795
14.46	0.54937
14.68	7.70859
14.9	1.22887
15.12	3.604
15.34	13.6795
15.56	7.48724
15.78	16.4392
16	5.3634
16.22	6.60826
16.44	9.42714
16.66	11.214
16.88	9.03256
17.1	7.77956
17.32	12.6013
17.54	10.2568
17.76	5.24117
17.98	3.64552
18.2	7.70169
18.42	22.5996
18.64	5.43513
18.86	18.7456
19.08	12.4951
19.3	1.67105
19.52	8.17825
19.74	7.51937
19.96	2.11748
20.18	14.436
20.4	2.55694
20.62	15.0641
20.84	30.9772
21.06	10.4153
21.28	77.1947
21.5	38.1371
21.72	15.6217
21.94	4.66729
22.16	3.6062
22.38	4.76479
22.6	0.079859
22.82	0.30245
23.04	9.51922
23.26	6.89307
23.48	6.84628
23.7	17.361
23.92	10.6702
24.14	2.42851
24.36	7.63511
24.58	5.58148
24.8	12.303
25.02	4.83279
25.24	21.4711
25.46	2.99559
25.68	13.3003
25.9	15.2001
26.12	33.87
26.34	26.6168
26.56	10.925
26.78	34.6002
27	3.51172
27.22	13.6333
27.44	10.7481
27.66	12.268
27.88	12.0817
28.1	3.1028
28.32	11.2174
28.54	10.3143
28.76	2.0963
28.98	11.1815
29.2	14.1031
29.42	1.46023
29.64	9.95066
29.86	6.53128
30.08	10.5053
30.3	49.3088
30.52	62.563
30.74	22.969
30.96	14.5257
31.18	10.5855
31.4	8.82645
31.62	12.19
31.84	19.4092
32.06	20.608
32.28	17.5863
32.5	10.6595
32.72	1.1898
32.94	4.30211
33.16	9.67397
33.38	7.01721
33.6	6.42957
33.82	51.1317
34.04	353.544
34.26	179.908
34.48	28.1577
34.7	18.8204
34.92	13.1484
35.14	11.6142
35.36	3.03681
35.58	13.4695
35.8	3.7131
36.02	3.78964
36.24	4.31834
36.46	11.1718
36.68	13.9125
36.9	9.4312
37.12	21.3413
37.34	178.51
37.56	153.869
37.78	32.2822
38	7.2369
38.22	15.49
38.44	5.8598
38.66	4.90271
38.88	11.4389
39.1	12.8112
39.32	10.0339
39.54	6.45807
39.76	0.761139
39.98	15.7669
40.2	7.97693
40.42	3.63788
40.64	16.808
40.86	12.8634
41.08	4.46212
41.3	16.4949
41.52	7.56769
41.74	15.2394
41.96	13.4567
42.18	15.6801
42.4	5.11802
42.62	13.5864
42.84	5.24176
43.06	5.05208
43.28	16.519
43.5	32.3655
43.72	14.7317
43.94	9.66009
44.16	13.2582
44.38	1.87636
44.6	0.363274
44.82	3.83711
45.04	8.92714
45.26	11.137
45.48	12.0342
45.7	19.6709
45.92	10.4533
46.14	7.56182
46.36	11.2853
46.58	15.4874
46.8	9.67195
47.02	6.39138
47.24	10.3455
47.46	10.1606
47.68	17.6754
47.9	12.2519
48.12	9.80222
48.34	8.71171
48.56	18.6639
48.78	18.0668
49	24.7602
49.22	21.9095
49.44	9.68937
49.66	9.51078
49.88	9.0679
50.1	9.68131
50.32	23.3392
50.54	13.0508
50.76	15.2728
50.98	20.7827
51.2	26.9678
51.42	79.9793
51.64	126.041
51.86	40.1069
52.08	14.0151
52.3	7.4133
52.52	13.8852
52.74	4.18333
52.96	10.5352
53.18	1.10332
53.4	6.20327
53.62	7.12454
53.84	29.4754
54.06	23.322
54.28	4.13996
54.5	17.9919
54.72	23.971
54.94	4.84987
55.16	9.14815
55.38	12.0581
55.6	1.09005
55.82	16.6085
56.04	9.50486
56.26	52.6813
56.48	53.2241
56.7	40.18
56.92	13.9428
57.14	9.43571
57.36	6.26816
57.58	8.08932
57.8	15.9378
58.02	10.7757
58.24	18.109
58.46	58.7987
58.68	88.998
58.9	73.6106
59.12	23.2798
59.34	4.32869
59.56	2.63457
59.78	7.42638
60	23.9072
60.22	12.6793
60.44	5.20251
60.66	6.83623
60.88	5.27183
61.1	28.451
61.32	5.91695
61.54	14.0854
61.76	9.09599
61.98	8.87181
62.2	8.46003
62.42	15.4646
62.64	13.4994
62.86	7.58007
63.08	17.9091
63.3	21.1354
63.52	18.1447
63.74	3.41895
63.96	4.87018
64.18	22.8194
64.4	3.16585
64.62	2.25161
64.84	12.3177
65.06	10.6977
65.28	3.43623
65.5	10.2898
65.72	9.98377
65.94	1.75469
66.16	2.68297
66.38	10.5405
66.6	3.23108
66.82	7.77798
67.04	10.5883
67.26	24.4018
67.48	13.851
67.7	26.0677
67.92	13.523
68.14	23.7607
68.36	14.5433
68.58	15.8119
68.8	2.15291
69.02	17.4501
69.24	3.13818
69.46	15.662
69.68	9.96223
69.9	9.92431
70.12	5.82938
70.34	0.874821
70.56	13.9389
70.78	21.7007
71	11.6604
71.22	14.6406
71.44	11.6356
71.66	16.9652
71.88	3.82251
72.1	4.2013
72.32	19.7425
72.54	2.05687
72.76	3.09105
72.98	12.374
73.2	9.89775
73.42	27.5966
73.64	42.4467
73.86	45.7473
74.08	36.7693
74.3	5.97313
74.52	14.1539
74.74	2.38298
74.96	18.7232
75.18	5.12663
75.4	18.1641
75.62	17.6965
75.84	26.1691
76.06	14.9339
76.28	16.5664
76.5	4.38584
76.72	17.1522
76.94	4.54571
77.16	17.0564
77.38	6.25572
77.6	8.35767
77.82	9.94116
78.04	13.7376
78.26	2.51222
78.48	11.2255
78.7	20.2197
78.92	12.0404
79.14	10.0442
79.36	20.9127
79.58	7.05829
79.8	17.2632
80.02	23.1952
80.24	12.1008
80.46	17.2042
80.68	2.0787
80.9	4.31982
81.12	18.9878
81.34	5.10302
81.56	1.46977
81.78	4.75303
82	1.44128
82.22	3.35621
82.44	24.1754
82.66	16.1765
82.88	10.8432
83.1	6.59218
83.32	28.0668
83.54	18.4304
83.76	23.2683
83.98	23.9902
84.2	13.2219
84.42	6.33682
84.64	7.82091
84.86	0.494553
85.08	23.0069
85.3	0.110058
85.52	20.9622
85.74	21.1616
85.96	26.2265
86.18	32.7016
86.4	11.874
86.62	12.8005
86.84	7.68293
87.06	13.6219
87.28	10.9058
87.5	20.9588
87.72	1.1613
87.94	18.7789
88.16	18.4642
88.38	9.87633
88.6	4.15839
88.82	0.088505
89.04	9.80769
89.26	18.2762
89.48	23.8709
89.7	23.21
89.92	0.294765
