Measurement: Powder, Xray Data XY Processed
Mineral: Umangite
Rruff sample: R070019
Ideal chemistry: Cu_3_Se_2_
Locality: Ato Bay, Beaverlodge Lake, Saskatchewan, Canada
Source: Mark Mauthner
Description: Metallic dark blue to black blebs underneath green glassy material
Diffraction sample description: Powder, using Mo radiation
Measured chemistry: Cu_3.00_Se_2.00_
Cell parameters: a: 6.408(2) b: 6.408(2) c: 4.283(3) alpha: 90 beta: 90 gamma: 90 volume: 175.9(1) crystal system: tetragonal
x	intensity
7.66	0
7.78	4.74716
7.9	1.04805
8.02	2.51463
8.14	2.00877
8.26	4.02348
8.38	1.42412
8.5	3.3624
8.62	2.09026
8.74	0.826157
8.86	7.7477
8.98	6.84065
9.1	5.03097
9.22	13.0002
9.34	17.7666
9.46	33.9612
9.58	34.2913
9.7	31.3308
9.82	20.4146
9.94	11.82
10.06	6.51386
10.18	11.3562
10.3	11.6002
10.42	15.4915
10.54	14.2222
10.66	11.1524
10.78	7.4794
10.9	16.4148
11.02	17.301
11.14	28.0668
11.26	94.2151
11.38	145.121
11.5	134.891
11.62	129.447
11.74	59.2484
11.86	20.8987
11.98	18.5469
12.1	14.916
12.22	17.2856
12.34	20.3825
12.46	27.6361
12.58	55.0769
12.7	86.9865
12.82	106.691
12.94	112.667
13.06	119.15
13.18	116.028
13.3	88.7315
13.42	43.1559
13.54	26.3436
13.66	18.1172
13.78	11.4615
13.9	13.9939
14.02	20.856
14.14	27.9792
14.26	34.1209
14.38	35.9422
14.5	26.1356
14.62	12.4337
14.74	7.88126
14.86	4.11464
14.98	8.53928
15.1	8.46039
15.22	7.8506
15.34	6.65268
15.46	1.75796
15.58	3.87306
15.7	16.4983
15.82	28.2097
15.94	31.7815
16.06	30.7648
16.18	12.1668
16.3	7.20436
16.42	0.004288
16.54	1.01537
16.66	0.812256
16.78	0.264145
16.9	3.99997
17.02	8.94241
17.14	15.7789
17.26	12.1146
17.38	7.56549
17.5	2.28406
17.62	0.600555
17.74	8.67682
17.86	45.6111
17.98	88.1562
18.1	108.516
18.22	76.9065
18.34	22.2805
18.46	3.77364
18.58	0.929596
18.7	0.151703
18.82	3.69014
18.94	19.9932
19.06	34.0038
19.18	44.0901
19.3	30.0897
19.42	7.90971
19.54	1.48578
19.66	1.09395
19.78	0.180023
19.9	7.43758
20.02	28.4542
20.14	57.4168
20.26	88.1351
20.38	80.9321
20.5	69.2547
20.62	33.8657
20.74	13.5951
20.86	7.43597
20.98	14.9447
21.1	39.1647
21.22	78.3042
21.34	97.9793
21.46	88.1425
21.58	51.4083
21.7	23.2409
21.82	3.6418
21.94	2.19844
22.06	21.7028
22.18	66.9601
22.3	117.284
22.42	132.134
22.54	94.3199
22.66	34.9483
22.78	45.7395
22.9	80.0027
23.02	106.988
23.14	87.5162
23.26	40.9059
23.38	13.1982
23.5	5.93782
23.62	6.06502
23.74	4.73418
23.86	14.762
23.98	13.0988
24.1	7.35616
24.22	3.70033
24.34	0.362411
24.46	0.211472
24.58	1.20238
24.7	6.51674
24.82	11.8524
24.94	18.7524
25.06	21.8562
25.18	15.147
25.3	3.77374
25.42	4.09936
25.54	2.96281
25.66	6.76241
25.78	9.00018
25.9	2.85307
26.02	1.38112
26.14	1.4989
26.26	8.09302
26.38	14.2842
26.5	15.2183
26.62	9.05849
26.74	1.85213
26.86	3.39101
26.98	0.720535
27.1	6.7543
27.22	9.95941
27.34	3.64761
27.46	3.12534
27.58	5.73348
27.7	6.33138
27.82	4.50577
27.94	1.61031
28.06	10.3718
28.18	17.9241
28.3	9.59917
28.42	3.9484
28.54	4.32924
28.66	18.0422
28.78	23.9998
28.9	30.8202
29.02	19.7277
29.14	4.58858
29.26	3.79458
29.38	6.84624
29.5	7.05552
29.62	11.2189
29.74	6.3585
29.86	9.47244
29.98	20.7722
30.1	26.2517
30.22	31.202
30.34	18.7216
30.46	12.1183
30.58	3.23972
30.7	2.58244
30.82	2.84356
30.94	1.39037
31.06	7.37935
31.18	2.47592
31.3	2.06728
31.42	1.92491
31.54	0.998924
31.66	0.386253
31.78	3.67599
31.9	3.01778
32.02	3.47552
32.14	7.93287
32.26	13.7598
32.38	9.25375
32.5	3.26087
32.62	0.121399
32.74	4.34612
32.86	1.42117
32.98	2.24309
33.1	1.57766
33.22	10.9699
33.34	24.0272
33.46	25.3921
33.58	20.7013
33.7	16.5659
33.82	11.039
33.94	10.9716
34.06	30.2458
34.18	46.7209
34.3	46.0016
34.42	41.9566
34.54	38.7493
34.66	38.167
34.78	40.3832
34.9	32.2518
35.02	19.3403
35.14	6.73518
35.26	19.0937
35.38	17.5172
35.5	17.6215
35.62	14.298
35.74	4.93306
35.86	4.3821
35.98	3.40311
36.1	1.4161
36.22	6.9013
36.34	1.28741
36.46	7.7962
36.58	11.4842
36.7	7.43496
36.82	6.41362
36.94	2.14053
37.06	6.91722
37.18	5.54704
37.3	3.36392
37.42	8.45457
37.54	8.2546
37.66	6.21741
37.78	4.94562
37.9	7.36862
38.02	2.49469
38.14	0.376305
38.26	0.845703
38.38	0.47686
38.5	2.28516
38.62	6.30389
38.74	9.23714
38.86	7.0333
38.98	5.95061
39.1	5.02234
39.22	9.42358
39.34	11.2692
39.46	8.16108
39.58	12.6447
39.7	7.6012
39.82	12.8004
39.94	13.4031
40.06	12.9808
40.18	5.30055
40.3	4.28514
40.42	1.43894
40.54	0.168343
40.66	2.48083
40.78	4.01798
40.9	5.61805
41.02	9.51221
41.14	0.75267
41.26	6.54089
41.38	10.3419
41.5	9.38388
41.62	8.9102
41.74	6.91026
41.86	1.04272
41.98	5.17497
42.1	6.67752
42.22	7.81775
42.34	4.99899
42.46	1.20737
42.58	4.55507
42.7	6.13245
42.82	9.12784
42.94	9.83587
43.06	7.1741
43.18	4.90016
43.3	5.22656
43.42	5.72295
43.54	5.81683
43.66	10.5559
43.78	12.2844
43.9	15.6417
44.02	17.9035
44.14	12.8685
44.26	12.5245
44.38	11.625
44.5	0.430351
44.62	0.224251
44.74	5.31109
44.86	0.957764
44.98	1.55059
45.1	3.64447
45.22	4.64425
45.34	4.48161
45.46	6.92764
45.58	6.22511
45.7	10.1959
45.82	4.24218
45.94	4.42197
46.06	8.35084
46.18	6.57367
46.3	7.66569
46.42	4.44404
46.54	6.86942
46.66	3.65845
46.78	6.85092
46.9	8.5422
47.02	5.82088
47.14	10.2107
47.26	5.61923
47.38	5.0545
47.5	8.2002
47.62	0.41629
47.74	0.307594
47.86	5.12502
