Measurement: Powder, Xray Data XY Processed
Mineral: Uranophane
Rruff sample: R050380
Ideal chemistry: Ca(U^6+^O_2_)_2_(SiO_3_OH)_2_5H_2_O
Locality: Grafton County, New Hampshire, USA
Source: University of Arizona Mineral Museum
Description: Orange massive coating
Diffraction sample description: Powder
Measured chemistry: (Ca_0.97_Pb_0.03_)(U_1.00_O_2_)_2_(Si_1.00_O_3_OH)_2_Â·5H_2_O
Cell parameters: a: 15.971(5) b: 7.020(1) c: 6.670(2) alpha: 90. beta: 97.15(2) gamma: 90. volume: 742.1(3) crystal system: monoclinic
x	intensity
4	0
4.221	116.798
4.442	289.955
4.663	352.804
4.884	462.54
5.105	328.953
5.326	372.85
5.547	308.17
5.768	161.715
5.989	23.532
6.21	14.158
6.431	43.607
6.652	14.008
6.873	76.719
7.094	148.094
7.315	144.687
7.536	225.126
7.757	185.257
7.978	196.301
8.199	198.811
8.42	147.844
8.641	141.559
8.862	139.656
9.083	144.353
9.304	76.133
9.525	56.584
9.746	61.791
9.967	63.965
10.188	31.905
10.409	42.425
10.63	6.303
10.851	74.486
11.072	149.035
11.293	341.87
11.514	570.462
11.735	138.303
11.956	27.363
12.177	48.916
12.398	20.771
12.619	10.16
12.84	41.138
13.061	19.647
13.282	48.947
13.503	52.705
13.724	133.416
13.945	87.062
14.166	52.313
14.387	8.414
14.608	4.01
14.829	33.032
15.05	62.025
15.271	72.4
15.492	62.5
15.713	21.501
15.934	21.975
16.155	43.651
16.376	121.052
16.597	188.09
16.818	109.878
17.039	15.334
17.26	26.45
17.481	43.98
17.702	1.888
17.923	42.864
18.144	53.533
18.365	76.273
18.586	264.195
18.807	402.023
19.028	155.768
19.249	20.891
19.47	31.755
19.691	49.065
19.912	11.578
20.133	57.315
20.354	33.089
20.575	45.952
20.796	38.759
21.017	93.517
21.238	77.241
21.459	6.078
21.68	18.284
21.901	8.169
22.122	39.715
22.343	86.942
22.564	466.19
22.785	904.217
23.006	342.169
23.227	82.075
23.448	26.955
23.669	47.307
23.89	7.228
24.111	26.742
24.332	16.042
24.553	16.769
24.774	101.882
24.995	257.349
25.216	115.466
25.437	153.397
25.658	509.238
25.879	282.403
26.1	139.698
26.321	89.141
26.542	84.691
26.763	97.422
26.984	203.637
27.205	13.079
27.426	44.609
27.647	4.08
27.868	203.958
28.089	656.125
28.31	353.537
28.531	37.524
28.752	5.426
28.973	1.137
29.194	47.569
29.415	23.348
29.636	16.665
29.857	140.02
30.078	706.108
30.299	496.967
30.52	260.528
30.741	469.649
30.962	593.822
31.183	318.697
31.404	59.571
31.625	76.224
31.846	54.328
32.067	49.97
32.288	8.429
32.509	16.716
32.73	7.245
32.951	30.755
33.172	99.069
33.393	319.558
33.614	306.168
33.835	107.926
34.056	159.828
34.277	349.119
34.498	234.362
34.719	68.153
34.94	31.617
35.161	62.691
35.382	75.076
35.603	106.963
35.824	206.752
36.045	118.723
36.266	46.694
36.487	44.758
36.708	24.113
36.929	14.338
37.15	18.996
37.371	34.808
37.592	82.107
37.813	82.019
38.034	38.632
38.255	52.089
38.476	25.39
38.697	23.981
38.918	8.389
39.139	3.332
39.36	25.066
39.581	54.968
39.802	57.708
40.023	158.847
40.244	90.086
40.465	86.908
40.686	128.294
40.907	120.077
41.128	398.627
41.349	418.449
41.57	94.882
41.791	71.806
42.012	3.659
42.233	12.797
42.454	53.639
42.675	26.148
42.896	79.818
43.117	354.665
43.338	482.365
43.559	207.641
43.78	63.668
44.001	87.444
44.222	177.576
44.443	36.465
44.664	59.772
44.885	14.257
45.106	18.153
45.327	28.84
45.548	16.052
45.769	48.479
45.99	255.725
46.211	346.309
46.432	442.06
46.653	261.846
46.874	68.654
47.095	40.692
47.316	3.724
47.537	17.536
47.758	275.488
47.979	359.757
48.2	214.988
48.421	336.173
48.642	360.308
48.863	346.828
49.084	213.681
49.305	86.612
49.526	16.364
49.747	61.304
49.968	128.288
50.189	173.295
50.41	129.346
50.631	35.463
50.852	34.816
51.073	1.83
51.294	19.175
51.515	96.627
51.736	301.97
51.957	211.938
52.178	168.108
52.399	350.686
52.62	356.477
52.841	231.757
53.062	84.814
53.283	136.343
53.504	131.631
53.725	156.94
53.946	8.5
54.167	62.705
54.388	35.868
54.609	45.811
54.83	6.182
55.051	89.448
55.272	136.919
55.493	190.769
55.714	209.805
55.935	146.783
56.156	1.675
56.377	27.15
56.598	25.802
56.819	43.626
57.04	66.035
57.261	31.115
57.482	140.697
57.703	235.141
57.924	222.634
58.145	116.037
58.366	177.679
58.587	261.028
58.808	203.729
59.029	122.733
59.25	95.069
59.471	15.669
59.692	31.796
59.913	121.548
60.134	84.502
60.355	194.567
60.576	154.945
60.797	52.907
61.018	16.946
61.239	50.169
61.46	7.513
61.681	40.046
61.902	126.582
62.123	196.241
62.344	232.263
62.565	142.492
62.786	57.242
63.007	8.474
63.228	77.73
63.449	32.499
63.67	160.057
63.891	183.636
64.112	137.97
64.333	156.351
64.554	221.061
64.775	282.326
64.996	212.32
65.217	149.381
65.438	127.141
65.659	72.303
65.88	10.432
66.101	24.425
66.322	18.664
66.543	8.14
66.764	21.839
66.985	58.008
67.206	25.459
67.427	4.957
67.648	114.202
67.869	97.897
68.09	68.396
68.311	68.773
68.532	135.731
68.753	127.895
68.974	61.672
69.195	20.378
69.416	3.859
69.637	41.652
69.858	98.583
70.079	51.036
70.3	100.806
70.521	70.305
70.742	89.733
70.963	58.431
71.184	74.954
71.405	45.636
71.626	46.204
71.847	4.394
72.068	4.516
72.289	32.612
72.51	68.96
72.731	102.202
72.952	48.234
73.173	56.658
73.394	106.247
73.615	45.58
73.836	86.522
74.057	38.299
74.278	76.361
74.499	36.321
74.72	7.116
74.941	84.43
75.162	139.886
75.383	136.31
75.604	116.527
75.825	59.298
76.046	17.938
76.267	26.687
76.488	65.326
76.709	140.389
76.93	192
77.151	195.807
77.372	124
77.593	23.481
77.814	22.628
78.035	54.377
78.256	61.941
78.477	43.764
78.698	29.053
78.919	33.974
79.14	19.818
79.361	46.585
79.582	50.743
79.803	23.831
80.024	71.143
80.245	6.134
80.466	23.066
80.687	24.46
80.908	31.71
81.129	0.559
81.35	99.961
81.571	83.321
81.792	102.221
82.013	94.363
82.234	82.096
82.455	93.373
82.676	7.376
82.897	36.027
83.118	7.609
83.339	35.829
83.56	32.238
83.781	116.97
84.002	69.899
84.223	48.044
84.444	84.066
84.665	79.451
84.886	34.807
85.107	80.405
85.328	68.021
85.549	62.565
85.77	48.753
85.991	56.986
86.212	51.31
86.433	16.37
86.654	20.874
86.875	53.157
87.096	32.681
87.317	10.648
87.538	48.594
87.759	10.721
87.98	48.107
88.201	62.042
88.422	19.387
88.643	45.67
88.864	11.01
89.085	58.031
89.306	94.536
89.527	78.835
89.748	37.619
89.969	0.479
