Measurement: Powder, Xray Data XY Processed
Mineral: Ussingite
Rruff sample: R070562
Ideal chemistry: Na_2_AlSi_3_O_8_(OH)
Locality: Tareq Slope, Ilimaussaq, Narsaq, Kitaa Province, Greenland
Source: James Shigley
Description: Pale purple massive
Diffraction sample description: Powder
Measured chemistry: Na_2.00_Al_1.00_Si_3.00_O_8_((OH)_0.91_F_0.09_)_Î£=1_; OH by difference
Cell parameters: a: 7.2551(2) b: 7.6867(3) c: 8.6822(3) alpha: 90.799(3) beta: 99.719(3) gamma: 122.565(2) volume: 399.00(2) crystal system: triclinic
x	intensity
5	0
5.22	4.09532
5.44	6.40977
5.66	17.2046
5.88	14.4266
6.1	13.4699
6.32	12.9561
6.54	5.24243
6.76	13.8872
6.98	12.4888
7.2	6.15937
7.42	10.4001
7.64	0.864363
7.86	7.76207
8.08	5.2736
8.3	12.7431
8.52	15.4046
8.74	7.73597
8.96	10.9978
9.18	2.3142
9.4	1.37664
9.62	15.6311
9.84	3.79814
10.06	5.55563
10.28	1.68235
10.5	6.96422
10.72	11.0538
10.94	7.2607
11.16	2.38042
11.38	7.3263
11.6	13.5265
11.82	8.68769
12.04	6.49409
12.26	12.4126
12.48	10.7302
12.7	2.11346
12.92	16.6393
13.14	5.35706
13.36	6.06972
13.58	123.945
13.8	232.104
14.02	10.6818
14.24	3.51088
14.46	5.86927
14.68	8.73989
14.9	9.98569
15.12	10.061
15.34	4.20199
15.56	11.325
15.78	0.309869
16	6.86008
16.22	23.6045
16.44	0.231153
16.66	11.4351
16.88	14.9804
17.1	9.5935
17.32	7.46071
17.54	9.32306
17.76	15.2101
17.98	137.543
18.2	15.4385
18.42	46.3318
18.64	1.40558
18.86	6.22109
19.08	6.48318
19.3	6.75195
19.52	0.163127
19.74	7.88454
19.96	10.9944
20.18	8.69501
20.4	2.3003
20.62	10.3772
20.84	36.2315
21.06	19.9297
21.28	14.1317
21.5	3.72092
21.72	10.3689
21.94	1.03655
22.16	3.68803
22.38	0.735956
22.6	8.83231
22.82	14.199
23.04	152.256
23.26	39.9734
23.48	10.58
23.7	183.895
23.92	108.287
24.14	5.10782
24.36	2.58883
24.58	8.89632
24.8	12.8869
25.02	348.604
25.24	64.1923
25.46	156.211
25.68	88.6158
25.9	0.18187
26.12	23.532
26.34	8.16482
26.56	37.8565
26.78	11.5925
27	2.36389
27.22	10.2724
27.44	100.618
27.66	2.09469
27.88	5.33009
28.1	7.18091
28.32	20.8282
28.54	54.7923
28.76	5.98599
28.98	87.1854
29.2	12.3419
29.42	21.4808
29.64	50.7111
29.86	547.57
30.08	38.8801
30.3	2.76911
30.52	5.74435
30.74	10.5056
30.96	14.7907
31.18	9.79202
31.4	9.30331
31.62	4.19451
31.84	1.93416
32.06	2.57156
32.28	5.93454
32.5	4.54055
32.72	109.087
32.94	97.4594
33.16	19.2322
33.38	20.6427
33.6	3.60599
33.82	5.66841
34.04	5.66207
34.26	14.6569
34.48	8.71075
34.7	0.321964
34.92	3.13255
35.14	10.0499
35.36	3.61956
35.58	11.9399
35.8	58.2884
36.02	15.9118
36.24	59.0984
36.46	7.17804
36.68	7.35316
36.9	71.4473
37.12	29.7039
37.34	3.93025
37.56	0.791691
37.78	24.5089
38	62.0481
38.22	1.94282
38.44	2.40245
38.66	9.04229
38.88	2.14415
39.1	6.50842
39.32	32.212
39.54	8.96021
39.76	18.6913
39.98	24.2128
40.2	9.81076
40.42	21.9443
40.64	8.6866
40.86	13.8521
41.08	6.09734
41.3	14.8033
41.52	1.45891
41.74	4.87835
41.96	7.08221
42.18	23.2863
42.4	4.12565
42.62	5.02476
42.84	27.3675
43.06	6.74162
43.28	31.0885
43.5	21.2315
43.72	2.07454
43.94	8.68922
44.16	37.5125
44.38	10.3244
44.6	12.1824
44.82	12.0417
45.04	48.4764
45.26	9.11409
45.48	30.4703
45.7	17.6329
45.92	29.6524
46.14	3.51279
46.36	3.89865
46.58	7.52703
46.8	15.0032
47.02	46.7399
47.24	6.33557
47.46	11.447
47.68	10.6563
47.9	8.75419
48.12	1.07177
48.34	20.9869
48.56	10.1775
48.78	22.4522
49	1.47435
49.22	9.56955
49.44	6.39045
49.66	9.52675
49.88	1.94667
50.1	13.4838
50.32	4.79329
50.54	5.54479
50.76	3.92658
50.98	8.57145
51.2	10.2355
51.42	2.85172
51.64	0.871363
51.86	15.0771
52.08	56.2556
52.3	138.074
52.52	9.66219
52.74	15.5789
52.96	8.55135
53.18	19.9058
53.4	9.61301
53.62	0.539919
53.84	14.2988
54.06	20.0584
54.28	8.82983
54.5	16.3664
54.72	12.517
54.94	62.0395
55.16	4.29674
55.38	18.594
55.6	0.903286
55.82	2.11917
56.04	4.23838
56.26	2.84912
56.48	24.8543
56.7	15.7695
56.92	18.4582
57.14	23.2931
57.36	0.216743
57.58	41.007
57.8	6.27717
58.02	3.86264
58.24	0.399439
58.46	16.8253
58.68	23.8518
58.9	19.4732
59.12	11.5227
59.34	13.4697
59.56	7.06439
59.78	10.4137
60	2.7205
60.22	6.77965
60.44	5.36663
60.66	12.2136
60.88	4.05218
61.1	7.86553
61.32	10.1148
61.54	0.657487
61.76	15.871
61.98	16.4141
62.2	1.17092
62.42	5.87036
62.64	2.52962
62.86	9.57953
63.08	9.57551
63.3	13.4372
63.52	10.2266
63.74	12.6024
63.96	18.5736
64.18	7.16863
64.4	45.1372
64.62	19.3907
64.84	14.642
65.06	11.8121
65.28	1.73683
65.5	22.6858
65.72	11.3493
65.94	6.59755
66.16	5.66588
66.38	0.088671
66.6	9.88783
66.82	10.2506
67.04	0.886279
67.26	10.816
67.48	6.77848
67.7	2.28112
67.92	5.74946
68.14	15.2066
68.36	9.0624
68.58	5.51877
68.8	33.6983
69.02	21.0511
69.24	13.7185
69.46	15.7005
69.68	10.692
69.9	6.38428
70.12	8.33768
70.34	28.2063
70.56	42.0558
70.78	37.018
71	34.8418
71.22	26.6184
71.44	22.3658
71.66	36.2715
71.88	19.6149
72.1	4.37479
72.32	17.6544
72.54	3.06331
72.76	6.4179
72.98	2.92515
73.2	3.24885
73.42	2.20799
73.64	6.66702
73.86	9.45063
74.08	12.3764
74.3	11.4579
74.52	13.0914
74.74	6.21649
74.96	11.4787
75.18	7.46632
75.4	3.6139
75.62	13.6593
75.84	5.42123
76.06	5.22438
76.28	5.4672
76.5	6.99966
76.72	6.74889
76.94	5.88314
77.16	6.81812
77.38	16.5695
77.6	9.40157
77.82	14.5727
78.04	0.314152
78.26	6.14409
78.48	12.8617
78.7	1.01037
78.92	2.9444
79.14	6.86267
79.36	1.91664
79.58	6.96572
79.8	2.94721
80.02	4.91943
80.24	9.61452
80.46	5.94123
80.68	8.87303
80.9	9.55523
81.12	14.508
81.34	2.7766
81.56	6.83198
81.78	14.8794
82	1.00627
82.22	15.1872
82.44	9.29715
82.66	11.4928
82.88	13.2799
83.1	15.7477
83.32	2.5813
83.54	10.6531
83.76	0.514809
83.98	4.65628
84.2	14.732
84.42	0.773192
84.64	11.9696
84.86	8.08121
85.08	11.0743
85.3	7.04032
85.52	2.77913
85.74	13.9203
85.96	4.02022
86.18	6.11719
86.4	4.45246
86.62	1.50751
86.84	11.5476
87.06	3.64868
87.28	1.28501
87.5	11.6933
87.72	8.5315
87.94	11.3402
88.16	2.29413
88.38	13.6735
88.6	7.32948
88.82	6.98729
89.04	2.89181
89.26	7.72082
89.48	13.7234
89.7	16.3248
89.92	7.31032
