Measurement: Powder, Xray Data XY Processed
Mineral: Uvarovite
Rruff sample: R061041
Ideal chemistry: Ca_3_Cr^3+^_2_(SiO_4_)_3_
Locality: Outokumpu, Finland
Source: Royal Ontario Museum
Description: Emerald-green euhedral crystal
Diffraction sample description: Powder
Measured chemistry: (Ca_2.93_Mg_0.05_Mn_0.01_[box]_0.01_)_Σ=3.00_(Cr_1.23_Al_0.72_Fe^3+^_0.03_Ti_0.02_)_Σ=2_(Si_1.00_O_4_)_3_
Cell parameters: a: 11.9433(3) b: 11.9433(3) c: 11.9433(3) alpha: 90 beta: 90 gamma: 90 volume: 1703.6(1) crystal system: cubic
x	intensity
5	0
5.22	4.86468
5.44	7.88384
5.66	6.42093
5.88	3.12281
6.1	4.87628
6.32	4.91712
6.54	5.71261
6.76	5.70078
6.98	13.8453
7.2	9.17576
7.42	9.53354
7.64	10.1117
7.86	4.6564
8.08	7.40918
8.3	5.4587
8.52	9.23747
8.74	7.09267
8.96	8.78822
9.18	6.68613
9.4	6.20151
9.62	0.157399
9.84	11.3656
10.06	2.54686
10.28	0.084899
10.5	2.89845
10.72	6.61413
10.94	7.48664
11.16	11.2344
11.38	12.1272
11.6	7.75842
11.82	11.4831
12.04	1.24374
12.26	8.09361
12.48	6.26572
12.7	5.47316
12.92	3.68497
13.14	4.86057
13.36	5.29453
13.58	3.56867
13.8	0.800515
14.02	5.00395
14.24	5.28819
14.46	1.42967
14.68	7.51226
14.9	6.56277
15.12	3.35308
15.34	3.28517
15.56	3.19626
15.78	0.084941
16	2.78187
16.22	1.83604
16.44	4.89806
16.66	4.73666
16.88	1.76768
17.1	6.57122
17.32	4.49815
17.54	1.25288
17.76	4.76161
17.98	1.84414
18.2	2.04213
18.42	4.28703
18.64	1.26103
18.86	1.36647
19.08	7.45445
19.3	4.67207
19.52	1.75028
19.74	5.87246
19.96	1.67837
20.18	1.72627
20.4	4.72983
20.62	3.70159
20.84	0.579395
21.06	5.59354
21.28	3.47866
21.5	4.70162
21.72	4.68409
21.94	3.77431
22.16	4.8173
22.38	2.89734
22.6	4.98205
22.82	6.0257
23.04	5.95501
23.26	3.1364
23.48	4.31801
23.7	1.24053
23.92	6.0372
24.14	3.93267
24.36	0.204288
24.58	3.73979
24.8	5.55623
25.02	3.44985
25.24	4.38256
25.46	4.36529
25.68	1.25077
25.9	3.09835
26.12	6.2255
26.34	1.36335
26.56	6.30303
26.78	5.47472
27	6.42454
27.22	1.5176
27.44	3.64517
27.66	1.8491
27.88	7.82219
28.1	6.86019
28.32	1.85176
28.54	4.59028
28.76	1.39946
28.98	4.54024
29.2	0.366024
29.42	3.41855
29.64	11.3863
29.86	7.40549
30.08	69.2396
30.3	7.38258
30.52	3.28512
30.74	4.2909
30.96	0.705814
31.18	2.27255
31.4	1.2493
31.62	5.37072
31.84	2.18638
32.06	4.22224
32.28	0.029484
32.5	5.94071
32.72	5.74029
32.94	0.53958
33.16	1.70823
33.38	2.81009
33.6	171.986
33.82	10.0533
34.04	2.92832
34.26	0.953804
34.48	1.96359
34.7	3.0617
34.92	3.2015
35.14	6.29023
35.36	10.3086
35.58	2.05612
35.8	2.87199
36.02	3.67466
36.24	1.24648
36.46	2.84765
36.68	3.91809
36.9	51.8742
37.12	10.8385
37.34	0.858608
37.56	0.176088
37.78	0.08485
38	2.15998
38.22	6.29973
38.44	13.4011
38.66	7.31459
38.88	3.33512
39.1	1.41891
39.32	4.44861
39.54	3.53501
39.76	5.55719
39.98	0.747888
40.2	0.40203
40.42	1.46612
40.64	5.40882
40.86	5.33931
41.08	6.44596
41.3	7.37409
41.52	16.3364
41.74	5.30117
41.96	2.20907
42.18	4.08574
42.4	1.01106
42.62	1.05353
42.84	3.11241
43.06	0.265079
43.28	4.38495
43.5	4.48338
43.72	4.61172
43.94	5.71161
44.16	3.79207
44.38	2.92395
44.6	0.091449
44.82	10.837
45.04	0.918522
45.26	5.03442
45.48	7.86484
45.7	1.78137
45.92	2.51262
46.14	4.19875
46.36	3.0783
46.58	3.98978
46.8	5.83463
47.02	30.9607
47.24	3.98364
47.46	1.89507
47.68	1.83922
47.9	1.91458
48.12	4.00624
48.34	11.1285
48.56	6.2599
48.78	5.39731
49	2.65397
49.22	2.63117
49.44	1.68368
49.66	1.83301
49.88	4.87553
50.1	2.92719
50.32	4.05837
50.54	5.01176
50.76	3.96921
50.98	3.89789
51.2	3.971
51.42	2.8387
51.64	1.89802
51.86	10.7906
52.08	2.54928
52.3	2.38392
52.52	6.25559
52.74	6.25488
52.96	0.171673
53.18	21.3332
53.4	6.29843
53.62	8.24129
53.84	2.12415
54.06	1.25241
54.28	6.25234
54.5	3.23115
54.72	0.223462
54.94	4.17083
55.16	0.077221
55.38	4.2688
55.6	22.0863
55.82	6.1601
56.04	3.04
56.26	4.03201
56.48	2.80406
56.7	4.75106
56.92	0.298131
57.14	1.65206
57.36	0.614924
57.58	5.64821
57.8	85.5462
58.02	36.5478
58.24	0.581538
58.46	0.520303
58.68	0.558119
58.9	0.727335
59.12	2.80265
59.34	0.993324
59.56	1.11874
59.78	4.20041
60	3.28213
60.22	5.3294
60.44	1.54331
60.66	2.57813
60.88	3.59563
61.1	4.63456
61.32	2.55497
61.54	0.760504
61.76	6.65956
61.98	9.64933
62.2	24.629
62.42	5.52528
62.64	7.65079
62.86	2.45242
63.08	3.3799
63.3	5.35536
63.52	6.36395
63.74	1.34417
63.96	1.17906
64.18	1.1607
64.4	0.120614
64.62	2.16018
64.84	4.27992
65.06	0.278508
65.28	2.23151
65.5	3.3351
65.72	2.45251
65.94	4.56728
66.16	1.64799
66.38	1.68813
66.6	7.77226
66.82	4.8924
67.04	4.9118
67.26	3.75643
67.48	0.746695
67.7	2.73587
67.92	6.74991
68.14	6.79297
68.36	2.78441
68.58	3.85602
68.8	6.8693
69.02	4.71467
69.24	7.6754
69.46	4.60215
69.68	1.60973
69.9	0.380338
70.12	2.47742
70.34	2.48127
70.56	23.2301
70.78	14.2972
71	4.36242
71.22	1.27172
71.44	4.23132
71.66	3.19924
71.88	3.17734
72.1	9.27426
72.32	2.25504
72.54	18.0094
72.76	18.1282
72.98	3.07843
73.2	7.03571
73.42	5.92953
73.64	3.9328
73.86	0.930209
74.08	5.24958
74.3	4.48847
74.52	9.35772
74.74	4.31597
74.96	5.33251
75.18	3.21223
75.4	3.08543
75.62	4.93303
75.84	12.2185
76.06	5.19175
76.28	0.114748
76.5	3.00208
76.72	2.89106
76.94	5.94051
77.16	4.97811
77.38	1.09734
77.6	1.28091
77.82	4.37249
78.04	3.40541
78.26	2.53374
78.48	4.60839
78.7	5.63913
78.92	0.387164
79.14	8.61128
79.36	2.68047
79.58	5.74181
79.8	0.673844
80.02	3.63827
80.24	4.50537
80.46	3.46596
80.68	1.45813
80.9	7.56462
81.12	3.51134
81.34	3.47127
81.56	3.45524
81.78	5.47081
82	0.424971
82.22	3.39525
82.44	3.50073
82.66	3.74351
82.88	3.8495
83.1	2.6249
83.32	4.57786
83.54	0.557971
83.76	4.50445
83.98	5.40878
84.2	1.41124
84.42	0.340144
84.64	4.26304
84.86	6.00522
85.08	3.89829
85.3	7.77922
85.52	7.81232
85.74	4.84196
85.96	7.91771
86.18	6.01259
86.4	7.23479
86.62	0.839317
86.84	3.20087
87.06	1.20807
87.28	7.2267
87.5	1.21911
87.72	5.39946
87.94	9.36008
88.16	10.6182
88.38	11.9523
88.6	2.87131
88.82	3.32626
89.04	1.47834
89.26	6.58806
89.48	4.36343
89.7	4.27665
89.92	9.66193
