Measurement: Powder, Xray Data XY Processed
Mineral: Valentinite
Rruff sample: R050389
Ideal chemistry: Sb^3+^_2_O_3_
Locality: Bohemia Region, Pribram, Czech Republic
Source: University of Arizona Mineral Museum
Description: Colorless prismatic parallel crystals
Diffraction sample description: Powder
Measured chemistry: Sb_2.00_O_3_
Cell parameters: a: 4.9122(5) b: 12.482(1) c: 5.4154(9) alpha: 90. beta: 90. gamma: 90. volume: 332.06(6) crystal system: orthorhombic
x	intensity
5	0
5.22	14.2568
5.44	0.158474
5.66	5.75282
5.88	8.98327
6.1	12.437
6.32	0.723517
6.54	6.23407
6.76	7.6053
6.98	4.07574
7.2	7.8564
7.42	5.46612
7.64	0.989019
7.86	4.37267
8.08	1.83138
8.3	2.00744
8.52	8.22546
8.74	0.652044
8.96	7.28712
9.18	9.29753
9.4	7.35689
9.62	2.01612
9.84	3.86805
10.06	0.651985
10.28	7.50582
10.5	6.48247
10.72	6.38805
10.94	3.44664
11.16	7.4667
11.38	4.60601
11.6	5.87411
11.82	5.85855
12.04	2.96715
12.26	2.00029
12.48	0.118538
12.7	3.31101
12.92	0.532279
13.14	2.58013
13.36	6.79804
13.58	9.82763
13.8	0.198772
14.02	8.69826
14.24	3.73652
14.46	0.731559
14.68	10.8552
14.9	8.84911
15.12	5.61316
15.34	3.98166
15.56	8.94953
15.78	1.72695
16	10.6891
16.22	3.54612
16.44	0.431365
16.66	2.27144
16.88	1.1024
17.1	7.77718
17.32	1.85724
17.54	10.8424
17.76	5.36006
17.98	9.11153
18.2	3.92753
18.42	8.61601
18.64	2.44105
18.86	3.35428
19.08	6.28281
19.3	35.3048
19.52	49.2384
19.74	13.1826
19.96	6.15762
20.18	3.12289
20.4	5.46198
20.62	7.73186
20.84	5.81971
21.06	4.96366
21.28	3.97467
21.5	6.14985
21.72	6.10597
21.94	3.23666
22.16	1.1159
22.38	2.09826
22.6	10.0952
22.82	6.82391
23.04	7.83082
23.26	10.9705
23.48	7.89415
23.7	5.76394
23.92	4.33638
24.14	5.93385
24.36	3.5165
24.58	1.91864
24.8	3.498
25.02	10.0702
25.24	13.8734
25.46	67.5768
25.68	38.9277
25.9	10.7474
26.12	10.7978
26.34	5.49043
26.56	3.69362
26.78	30.7979
27	2.31308
27.22	1.78806
27.44	4.20551
27.66	1.64801
27.88	12.5594
28.1	58.1773
28.32	203.613
28.54	194.145
28.76	103.399
28.98	22.7516
29.2	3.36706
29.42	8.3112
29.64	1.27458
29.86	7.42937
30.08	7.64184
30.3	0.792008
30.52	8.13063
30.74	3.61184
30.96	4.01824
31.18	6.25534
31.4	5.22003
31.62	1.17967
31.84	13.6024
32.06	4.14952
32.28	10.5604
32.5	20.074
32.72	20.4665
32.94	18.7273
33.16	25.6556
33.38	0.414849
33.6	2.74747
33.82	28.5824
34.04	31.1793
34.26	4.60813
34.48	5.19915
34.7	0.525218
34.92	2.99763
35.14	5.29172
35.36	3.52477
35.58	11.7076
35.8	3.74252
36.02	3.53209
36.24	8.19988
36.46	25.382
36.68	35.4375
36.9	4.44294
37.12	0.341429
37.34	3.81864
37.56	1.80529
37.78	4.48787
38	4.83176
38.22	1.03054
38.44	2.07833
38.66	3.92152
38.88	0.580806
39.1	0.245779
39.32	5.66137
39.54	7.32896
39.76	5.15873
39.98	4.99675
40.2	1.77853
40.42	6.65195
40.64	7.12392
40.86	6.1791
41.08	11.8062
41.3	7.83042
41.52	4.63531
41.74	3.58111
41.96	4.43961
42.18	2.76451
42.4	5.98035
42.62	1.78079
42.84	3.48076
43.06	8.70459
43.28	6.19706
43.5	8.62807
43.72	2.63249
43.94	30.937
44.16	15.1363
44.38	20.2135
44.6	6.22039
44.82	4.11859
45.04	0.004037
45.26	0.899622
45.48	2.00368
45.7	2.87735
45.92	5.77674
46.14	18.2469
46.36	0.867874
46.58	6.60416
46.8	9.88581
47.02	52.2555
47.24	34.3811
47.46	9.71533
47.68	6.16416
47.9	2.4202
48.12	4.4808
48.34	3.57957
48.56	1.41115
48.78	0.847232
49	2.681
49.22	7.83285
49.44	3.3389
49.66	19.8419
49.88	12.4858
50.1	23.83
50.32	27.8451
50.54	74.9627
50.76	43.394
50.98	13.3272
51.2	3.11488
51.42	2.77345
51.64	4.60884
51.86	0.760173
52.08	2.11011
52.3	1.45049
52.52	6.86421
52.74	4.96196
52.96	2.12486
53.18	2.56785
53.4	0.945043
53.62	0.408278
53.84	9.30883
54.06	8.88034
54.28	5.64344
54.5	19.4143
54.72	30.3246
54.94	16.5285
55.16	19.633
55.38	12.5758
55.6	4.69347
55.82	2.84826
56.04	0.142342
56.26	4.34589
56.48	8.52444
56.7	6.84533
56.92	6.04224
57.14	11.8712
57.36	4.41684
57.58	9.12743
57.8	7.9927
58.02	3.8102
58.24	0.592113
58.46	6.31541
58.68	14.1696
58.9	22.111
59.12	24.9733
59.34	9.78004
59.56	6.85189
59.78	1.11716
60	0.035412
60.22	6.19599
60.44	6.90958
60.66	6.47796
60.88	23.7144
61.1	17.7641
61.32	7.92175
61.54	8.7729
61.76	0.960134
61.98	2.03022
62.2	1.08683
62.42	10.1892
62.64	4.34288
62.86	5.08004
63.08	10.9298
63.3	5.15659
63.52	4.76838
63.74	1.07508
63.96	4.17523
64.18	6.239
64.4	4.45893
64.62	2.43483
64.84	5.29365
65.06	7.06747
65.28	1.70771
65.5	1.38971
65.72	2.90042
65.94	4.23747
66.16	0.227327
66.38	0.611117
66.6	7.76154
66.82	5.63928
67.04	10.9079
67.26	8.04151
67.48	6.22444
67.7	0.610855
67.92	4.90207
68.14	4.24242
68.36	6.58596
68.58	4.78963
68.8	3.93965
69.02	1.76891
69.24	7.87054
69.46	11.119
69.68	3.20662
69.9	3.21015
70.12	1.99735
70.34	5.91817
70.56	1.76465
70.78	2.57945
71	6.56967
71.22	1.52076
71.44	12.6024
71.66	7.48812
71.88	10.4458
72.1	3.47116
72.32	6.56395
72.54	0.689597
72.76	2.78262
72.98	2.84958
73.2	8.92972
73.42	2.97051
73.64	7.07773
73.86	8.98276
74.08	13.2101
74.3	14.2885
74.52	10.3626
74.74	4.34498
74.96	2.32047
75.18	0.701991
75.4	5.36219
75.62	5.34716
75.84	8.42289
76.06	6.41645
76.28	6.45456
76.5	11.0726
76.72	4.95829
76.94	2.84428
77.16	2.82394
77.38	4.99941
77.6	4.18515
77.82	9.27618
78.04	7.18405
78.26	7.13257
78.48	6.15982
78.7	0.055733
78.92	4.21007
79.14	7.00067
79.36	5.72728
79.58	1.43397
79.8	4.90528
80.02	0.645139
80.24	1.84572
80.46	5.55732
80.68	11.1307
80.9	13.1422
81.12	8.98287
81.34	2.86068
81.56	8.18633
81.78	12.5132
82	10.7727
82.22	6.233
82.44	0.690973
82.66	6.10621
82.88	3.42259
83.1	2.81078
83.32	1.94579
83.54	3.30419
83.76	6.38849
83.98	9.4099
84.2	5.43274
84.42	5.56048
84.64	5.59172
84.86	6.73482
85.08	5.87277
85.3	6.11103
85.52	2.2732
85.74	0.516007
85.96	6.52211
86.18	0.377082
86.4	1.64604
86.62	0.299513
86.84	0.242265
87.06	4.71075
87.28	3.67246
87.5	3.60133
87.72	7.53094
87.94	4.44834
88.16	2.25901
88.38	2.33699
88.6	1.34307
88.82	1.3069
89.04	9.35449
89.26	8.34702
89.48	6.3426
89.7	5.10315
89.92	1.64818
