Measurement: Powder, Xray Data XY Processed
Mineral: Vanadinite
Rruff sample: R050189
Ideal chemistry: Pb^2+^_5_(V^5+^O_4_)_3_Cl
Locality: Puzzler mine, Yuma County, Arizona, USA
Source: Dave Bunk Minerals
Description: Red and green hexagonal prisms
Diffraction sample description: Powder
Measured chemistry: Pb_5.00_(V_1.00_O_4_)_3_Cl_1.00_
Cell parameters: a: 10.3204(3) b: 10.3204(3) c: 7.3499(4) alpha: 90. beta: 90. gamma: 120. volume: 677.97(5) crystal system: hexagonal
x	intensity
5	0
5.22	6.10689
5.44	6.29701
5.66	11.4328
5.88	0.538003
6.1	18.7702
6.32	15.2823
6.54	14.6051
6.76	8.93093
6.98	11.447
7.2	7.81446
7.42	5.9359
7.64	3.15734
7.86	7.2591
8.08	3.44398
8.3	11.3778
8.52	5.08182
8.74	8.91519
8.96	8.64253
9.18	2.38984
9.4	5.96929
9.62	12.7142
9.84	14.851
10.06	2.92498
10.28	1.27116
10.5	0.193231
10.72	7.55143
10.94	4.66791
11.16	1.87371
11.38	3.06451
11.6	1.17415
11.82	4.45338
12.04	1.43741
12.26	6.45472
12.48	4.34647
12.7	4.21216
12.92	2.24204
13.14	11.0786
13.36	4.36843
13.58	6.41264
13.8	4.47302
14.02	7.47535
14.24	6.41672
14.46	1.40075
14.68	4.36068
14.9	6.3253
15.12	3.26258
15.34	6.13371
15.56	1.96621
15.78	6.54208
16	2.48728
16.22	4.22757
16.44	5.22652
16.66	7.23992
16.88	6.15952
17.1	4.07681
17.32	9.96992
17.54	11.3276
17.76	2.35242
17.98	12.2603
18.2	1.03439
18.42	7.92659
18.64	5.06659
18.86	6.74849
19.08	8.44094
19.3	8.23046
19.52	3.01222
19.74	2.85453
19.96	76.1055
20.18	4.96313
20.4	8.17633
20.62	5.19892
20.84	0.975089
21.06	102.519
21.28	5.08107
21.5	8.27817
21.72	0.520888
21.94	4.79825
22.16	4.92514
22.38	1.96878
22.6	1.91036
22.82	9.60654
23.04	3.47238
23.26	4.37032
23.48	6.74488
23.7	10.3415
23.92	9.43254
24.14	10.6907
24.36	16.6867
24.58	9.95185
24.8	9.93453
25.02	5.94406
25.24	3.95635
25.46	5.91771
25.68	0.134629
25.9	0.779697
26.12	27.6179
26.34	110.74
26.56	46.3078
26.78	8.42264
27	10.2604
27.22	3.5812
27.44	8.50292
27.66	6.13832
27.88	3.71076
28.1	4.18635
28.32	0.515606
28.54	3.84806
28.76	7.06546
28.98	44.4653
29.2	276.425
29.42	28.171
29.64	15.7264
29.86	301.897
30.08	197.427
30.3	25.2371
30.52	13.7944
30.74	6.69118
30.96	3.29836
31.18	3.67879
31.4	8.37923
31.62	13.1283
31.84	10.5498
32.06	11.0436
32.28	2.56253
32.5	11.4074
32.72	7.6353
32.94	0.815833
33.16	3.68941
33.38	5.63688
33.6	4.491
33.82	6.56331
34.04	3.58607
34.26	11.6915
34.48	9.54343
34.7	5.63744
34.92	16.8361
35.14	6.56539
35.36	5.5902
35.58	3.5917
35.8	2.59174
36.02	2.67479
36.24	6.96611
36.46	6.02825
36.68	4.19692
36.9	0.032952
37.12	3.15776
37.34	3.99457
37.56	0.897826
37.78	6.08969
38	1.0556
38.22	7.1023
38.44	4.21723
38.66	0.223403
38.88	12.9193
39.1	5.68001
39.32	2.58058
39.54	9.20095
39.76	6.03728
39.98	2.77232
40.2	7.96246
40.42	17.1527
40.64	28.0938
40.86	33.6311
41.08	4.4257
41.3	2.48258
41.52	5.25638
41.74	8.05115
41.96	5.82841
42.18	5.8037
42.4	6.8607
42.62	16.3054
42.84	115.019
43.06	20.8095
43.28	6.73074
43.5	6.53317
43.72	4.64372
43.94	9.9145
44.16	54.9863
44.38	7.99011
44.6	5.65447
44.82	1.20929
45.04	0.158145
45.26	1.34786
45.48	1.81961
45.7	47.2902
45.92	84.0623
46.14	40.8872
46.36	7.06962
46.58	59.8995
46.8	15.7456
47.02	2.9171
47.24	4.73574
47.46	3.83848
47.68	61.5119
47.9	12.5983
48.12	11.2778
48.34	3.51645
48.56	6.52862
48.78	3.99495
49	2.57052
49.22	6.16349
49.44	19.3413
49.66	63.4479
49.88	6.3959
50.1	2.37084
50.32	9.31354
50.54	1.60369
50.76	2.04015
50.98	7.15893
51.2	11.2157
51.42	2.06107
51.64	2.75584
51.86	0.663724
52.08	4.46364
52.3	5.24204
52.52	6.54593
52.74	7.07022
52.96	16.5133
53.18	13.831
53.4	10.7101
53.62	0.394684
53.84	4.49258
54.06	2.60794
54.28	19.7322
54.5	14.2931
54.72	6.61332
54.94	14.4182
55.16	4.98992
55.38	4.21763
55.6	7.34933
55.82	3.38889
56.04	2.38851
56.26	1.43277
56.48	4.22828
56.7	9.1727
56.92	9.84632
57.14	18.0658
57.36	37.9218
57.58	26.3406
57.8	4.15438
58.02	6.07033
58.24	4.02601
58.46	3.05369
58.68	18.8715
58.9	54.3134
59.12	56.4237
59.34	28.3184
59.56	11.0084
59.78	0.235664
60	4.49163
60.22	4.71014
60.44	1.23429
60.66	2.71686
60.88	3.96204
61.1	1.17743
61.32	1.94698
61.54	7.01398
61.76	2.05692
61.98	9.25036
62.2	5.0073
62.42	3.12878
62.64	2.21845
62.86	5.9612
63.08	5.71307
63.3	14.7834
63.52	7.79268
63.74	14.1164
63.96	1.02046
64.18	6.00719
64.4	14.8457
64.62	2.94471
64.84	2.61243
65.06	9.38199
65.28	0.926885
65.5	4.83189
65.72	4.47887
65.94	5.34579
66.16	8.96449
66.38	11.7343
66.6	17.7676
66.82	6.43583
67.04	0.060691
67.26	8.1941
67.48	1.0094
67.7	0.195774
67.92	12.7077
68.14	8.91376
68.36	2.30558
68.58	16.2227
68.8	25.9928
69.02	10.4829
69.24	9.42616
69.46	0.749043
69.68	3.99169
69.9	14.0877
70.12	17.7123
70.34	32.1413
70.56	34.1818
70.78	24.5977
71	9.24296
71.22	6.80055
71.44	11.3236
71.66	3.71529
71.88	1.82084
72.1	1.08846
72.32	7.31644
72.54	6.05051
72.76	7.9021
72.98	2.76834
73.2	11.6691
73.42	17.5589
73.64	12.4306
73.86	7.45247
74.08	11.4135
74.3	3.74436
74.52	6.33997
74.74	6.36522
74.96	8.68615
75.18	6.7295
75.4	1.68003
75.62	8.55434
75.84	7.37023
76.06	4.27335
76.28	1.06874
76.5	5.10972
76.72	8.64018
76.94	1.57275
77.16	8.99892
77.38	16.771
77.6	7.23324
77.82	6.2557
78.04	4.24757
78.26	1.80339
78.48	7.0519
78.7	2.96206
78.92	8.00062
79.14	7.49994
79.36	6.17351
79.58	14.3959
79.8	5.02117
80.02	3.23968
80.24	3.05671
80.46	10.0057
80.68	23.2013
80.9	19.5671
81.12	3.09027
81.34	3.35102
81.56	8.87222
81.78	4.56119
82	2.25055
82.22	0.287627
82.44	2.69908
82.66	8.68198
82.88	3.99695
83.1	6.07235
83.32	5.03209
83.54	4.03479
83.76	1.83113
83.98	6.96105
84.2	0.215183
84.42	9.57853
84.64	2.37949
84.86	3.24998
85.08	4.12568
85.3	10.0098
85.52	3.86372
85.74	5.11834
85.96	6.05867
86.18	13.15
86.4	12.8176
86.62	7.62392
86.84	3.48747
87.06	6.57037
87.28	5.3828
87.5	12.3596
87.72	15.5207
87.94	3.48085
88.16	10.0214
88.38	5.79665
88.6	10.4163
88.82	3.39714
89.04	4.42919
89.26	6.33394
89.48	7.77143
89.7	7.30764
89.92	7.06863
