Measurement: Powder, Xray Data XY Processed
Mineral: Vanadinite
Rruff sample: R050171
Ideal chemistry: Pb^2+^_5_(V^5+^O_4_)_3_Cl
Locality: Hamburg mine, La Paz County, Arizona, USA
Source: Marcus Origlieri
Description: Red prismatic hexagonal crystals
Diffraction sample description: Powder
Measured chemistry: Pb_5.00_((V_0.89_As_0.11_)O_4_)_3_Cl_1.00_
Cell parameters: a: 10.3172(2) b: 10.3172(2) c: 7.3496(3) alpha: 90. beta: 90. gamma: 120. volume: 677.52(3) crystal system: hexagonal
x	intensity
5	0
5.22	9.602
5.44	6.721
5.66	3.737
5.88	3.11
6.1	6.496
6.32	8.833
6.54	9.487
6.76	12.772
6.98	8.179
7.2	0.775
7.42	4.179
7.64	7.382
7.86	1.397
8.08	3.448
8.3	0.33
8.52	2.492
8.74	6.874
8.96	2.454
9.18	6.009
9.4	3.825
9.62	5.441
9.84	16.186
10.06	0.454
10.28	2.807
10.5	5.926
10.72	3.363
10.94	5.779
11.16	4.211
11.38	3.474
11.6	13.954
11.82	8.125
12.04	5.307
12.26	5.606
12.48	5.405
12.7	7.409
12.92	7.581
13.14	0.466
13.36	4.297
13.58	7.162
13.8	0.083
14.02	6.071
14.24	1.992
14.46	8.86
14.68	7.619
14.9	3.593
15.12	4.525
15.34	3.715
15.56	6.644
15.78	9.789
16	9.819
16.22	11.84
16.44	4.646
16.66	11.856
16.88	10.904
17.1	14.952
17.32	9.8
17.54	6.767
17.76	1.228
17.98	0.003
18.2	2.492
18.42	1.49
18.64	9.143
18.86	0.669
19.08	1.982
19.3	0.34
19.52	5.381
19.74	8.155
19.96	62.704
20.18	1.629
20.4	10.538
20.62	8.837
20.84	9.971
21.06	244.33
21.28	9.601
21.5	10.077
21.72	1.101
21.94	2.82
22.16	4.209
22.38	0.731
22.6	8.462
22.82	5.527
23.04	4.248
23.26	17.859
23.48	6.848
23.7	6.623
23.92	0.142
24.14	24.289
24.36	13.227
24.58	4.127
24.8	6.245
25.02	0.865
25.24	10.583
25.46	4.348
25.68	6.124
25.9	4.68
26.12	41.224
26.34	145.168
26.56	25.188
26.78	9.13
27	21.726
27.22	4.501
27.44	2.324
27.66	2.238
27.88	4.675
28.1	12.014
28.32	1.732
28.54	9.299
28.76	4.058
28.98	76.024
29.2	266.216
29.42	27.518
29.64	44.766
29.86	613.867
30.08	243.484
30.3	15.169
30.52	1.9
30.74	8.709
30.96	3.77
31.18	9.663
31.4	8.399
31.62	2.971
31.84	2.75
32.06	13.777
32.28	3.144
32.5	10.918
32.72	3.239
32.94	5.104
33.16	3.415
33.38	0.416
33.6	8.698
33.82	3.952
34.04	5.087
34.26	8.144
34.48	9.169
34.7	12.251
34.92	17.239
35.14	3.773
35.36	5.597
35.58	3.705
35.8	2.834
36.02	4.825
36.24	15.473
36.46	7.502
36.68	6.407
36.9	3.498
37.12	5.444
37.34	13.58
37.56	6.519
37.78	4.466
38	7.333
38.22	12.442
38.44	19.427
38.66	7.781
38.88	24.107
39.1	19.114
39.32	3.121
39.54	9.785
39.76	2.568
39.98	0.535
40.2	7.454
40.42	23.435
40.64	11.597
40.86	28.3
41.08	9.803
41.3	11.478
41.52	0.892
41.74	4.148
41.96	6.515
42.18	3.23
42.4	0.368
42.62	15.309
42.84	208.972
43.06	28.219
43.28	4.059
43.5	9.613
43.72	0.019
43.94	20.173
44.16	91.269
44.38	13.005
44.6	9.657
44.82	3.458
45.04	10.012
45.26	6.447
45.48	13.835
45.7	108.269
45.92	162.44
46.14	24.952
46.36	18.368
46.58	84.979
46.8	17.125
47.02	7.402
47.24	3.808
47.46	25.192
47.68	97.923
47.9	23.973
48.12	3.712
48.34	8.905
48.56	4.904
48.78	3.578
49	11.153
49.22	5.528
49.44	17.049
49.66	37.106
49.88	15.626
50.1	2.567
50.32	8.674
50.54	7.892
50.76	0.269
50.98	16.876
51.2	7.9
51.42	0.711
51.64	0.553
51.86	7.169
52.08	4.072
52.3	10.716
52.52	19.76
52.74	7.331
52.96	14.785
53.18	35.905
53.4	10.395
53.62	5.75
53.84	6.129
54.06	8.124
54.28	24.849
54.5	11.525
54.72	16.793
54.94	19.667
55.16	6.471
55.38	0.057
55.6	6.801
55.82	5.037
56.04	5.177
56.26	1.272
56.48	7.191
56.7	8.048
56.92	25.121
57.14	32.159
57.36	34.557
57.58	10.73
57.8	5.349
58.02	0.406
58.24	3.273
58.46	6.045
58.68	37.099
58.9	72.531
59.12	55.655
59.34	24.48
59.56	9.5
59.78	7.393
60	5.901
60.22	3.379
60.44	7.999
60.66	6.519
60.88	5.951
61.1	1.001
61.32	6.137
61.54	8.38
61.76	9.469
61.98	3.785
62.2	3.505
62.42	0.501
62.64	2.498
62.86	2.497
63.08	3.558
63.3	11.894
63.52	3.081
63.74	8.113
63.96	12.112
64.18	3.025
64.4	6.06
64.62	1.083
64.84	0.807
65.06	5.38
65.28	4.99
65.5	11.588
65.72	7.832
65.94	7.581
66.16	9.279
66.38	18.172
66.6	19.906
66.82	7.973
67.04	9.463
67.26	4.394
67.48	10.046
67.7	7.645
67.92	13.247
68.14	18.565
68.36	0.343
68.58	17.779
68.8	34.023
69.02	23.848
69.24	4.183
69.46	0.339
69.68	15.556
69.9	25.802
70.12	29.22
70.34	55.155
70.56	58.1
70.78	27.837
71	16.16
71.22	4.144
71.44	6.198
71.66	5.824
71.88	5.589
72.1	0.913
72.32	5.364
72.54	4.535
72.76	0.189
72.98	4.118
73.2	7.916
73.42	23.083
73.64	11.867
73.86	1.628
74.08	2.913
74.3	8.691
74.52	6.927
74.74	1.193
74.96	10.572
75.18	13.622
75.4	1.561
75.62	0.496
75.84	3.565
76.06	2.373
76.28	14.319
76.5	12.939
76.72	12.799
76.94	8.987
77.16	20.992
77.38	14.801
77.6	8.01
77.82	9.859
78.04	0.723
78.26	1.42
78.48	4.115
78.7	7.761
78.92	7.898
79.14	20.584
79.36	23.772
79.58	21.053
79.8	6.305
80.02	3.049
80.24	16.93
80.46	16.931
80.68	10.437
80.9	12.199
81.12	9.876
81.34	18.957
81.56	15.467
81.78	4.214
82	3.791
82.22	1.395
82.44	2.821
82.66	11.223
82.88	12.546
83.1	0.566
83.32	4.352
83.54	0.475
83.76	5.402
83.98	7.894
84.2	8.192
84.42	10.155
84.64	8.005
84.86	1.959
85.08	4.129
85.3	5.649
85.52	4.683
85.74	2.573
85.96	6.295
86.18	18.982
86.4	4.101
86.62	6.445
86.84	0.164
87.06	2.838
87.28	11.7
87.5	11.554
87.72	13.365
87.94	5.327
88.16	5.161
88.38	6.929
88.6	0.797
88.82	7.868
89.04	5.014
89.26	3.106
89.48	14.967
89.7	9.423
89.92	3.229
