Measurement: Powder, Xray Data XY Processed
Mineral: Vanadinite
Rruff sample: R050533
Ideal chemistry: Pb^2+^_5_(V^5+^O_4_)_3_Cl
Locality: Ahumada mine, Los Lamentos, Mexico
Source: University of Arizona Mineral Museum
Description: Greenish-brown hexagonal prisms
Diffraction sample description: Powder
Measured chemistry: Pb_5.00_((V_0.95_As_0.05_)O_4_)_3_Cl_1.00_
Cell parameters: a: 10.3188(5) b: 10.3188(5) c: 7.3505(6) alpha: 90. beta: 90. gamma: 120. volume: 677.81(7) crystal system: hexagonal
x	intensity
5	0
5.22	1.08088
5.44	1.83242
5.66	12.0246
5.88	5.22156
6.1	8.70579
6.32	18.1897
6.54	3.48867
6.76	7.07161
6.98	1.67895
7.2	1.24717
7.42	2.54175
7.64	2.85087
7.86	0.170592
8.08	1.36159
8.3	1.79148
8.52	3.7202
8.74	1.57489
8.96	7.4877
9.18	12.1531
9.4	3.00364
9.62	2.7389
9.84	7.65692
10.06	1.80172
10.28	2.92894
10.5	4.99014
10.72	10.7606
10.94	0.857524
11.16	1.0466
11.38	2.1564
11.6	4.31678
11.82	3.55829
12.04	6.75024
12.26	0.86889
12.48	0.680903
12.7	2.75292
12.92	7.76248
13.14	7.96112
13.36	2.05322
13.58	6.96612
13.8	0.952037
14.02	4.77122
14.24	0.705312
14.46	5.7331
14.68	8.68839
14.9	0.360598
15.12	1.58811
15.34	4.90717
15.56	3.75203
15.78	3.71871
16	2.73189
16.22	4.68141
16.44	3.64022
16.66	0.670889
16.88	2.54133
17.1	12.6022
17.32	10.531
17.54	6.17019
17.76	0.853662
17.98	8.72722
18.2	4.7491
18.42	6.58402
18.64	7.4008
18.86	3.2273
19.08	1.98811
19.3	1.21137
19.52	2.79532
19.74	5.67744
19.96	36.6233
20.18	2.60562
20.4	0.265224
20.62	5.62684
20.84	2.79664
21.06	95.0008
21.28	5.15691
21.5	4.44165
21.72	4.98659
21.94	4.94316
22.16	1.04371
22.38	0.209665
22.6	1.28568
22.82	0.964378
23.04	4.93069
23.26	8.89839
23.48	8.95642
23.7	2.03808
23.92	1.04859
24.14	9.59282
24.36	6.66669
24.58	4.5872
24.8	2.41197
25.02	2.28855
25.24	1.14827
25.46	4.07003
25.68	3.19917
25.9	5.0048
26.12	9.83954
26.34	53.869
26.56	33.8912
26.78	2.24242
27	13.2914
27.22	5.08734
27.44	0.954036
27.66	3.23528
27.88	0.350282
28.1	4.58743
28.32	6.01924
28.54	1.48915
28.76	3.65818
28.98	36.8998
29.2	164.063
29.42	11.7539
29.64	6.92382
29.86	259.139
30.08	116.486
30.3	18.9387
30.52	3.4529
30.74	2.98126
30.96	8.49586
31.18	0.630133
31.4	4.8574
31.62	14.4291
31.84	1.96814
32.06	5.96594
32.28	7.12434
32.5	11.2156
32.72	5.31045
32.94	3.67438
33.16	5.87147
33.38	3.96929
33.6	1.92216
33.82	2.89909
34.04	5.18865
34.26	6.99491
34.48	10.9947
34.7	9.0199
34.92	4.07426
35.14	0.96941
35.36	2.74999
35.58	4.74842
35.8	8.75704
36.02	3.61956
36.24	10.6809
36.46	0.690183
36.68	0.861048
36.9	9.95592
37.12	2.8428
37.34	0.864128
37.56	1.9308
37.78	3.94922
38	3.89108
38.22	9.86726
38.44	5.851
38.66	0.189421
38.88	17.7709
39.1	2.52894
39.32	2.33633
39.54	6.22735
39.76	12.0193
39.98	1.88716
40.2	6.79418
40.42	12.7404
40.64	13.9171
40.86	16.8325
41.08	8.90015
41.3	13.7302
41.52	0.669456
41.74	5.622
41.96	4.54254
42.18	4.63336
42.4	3.5899
42.62	7.58753
42.84	86.5382
43.06	18.2355
43.28	10.0008
43.5	1.76502
43.72	9.02559
43.94	2.39122
44.16	40.9324
44.38	13.7828
44.6	3.42164
44.82	2.07471
45.04	1.29124
45.26	1.39074
45.48	0.016987
45.7	48.5934
45.92	60.3645
46.14	31.0848
46.36	6.50237
46.58	49.948
46.8	19.9452
47.02	4.22348
47.24	2.57447
47.46	4.95875
47.68	59.3156
47.9	17.9427
48.12	1.36457
48.34	5.53601
48.56	2.5093
48.78	0.215859
49	0.161008
49.22	2.37087
49.44	12.5774
49.66	20.527
49.88	12.5631
50.1	4.59663
50.32	7.51719
50.54	3.80523
50.76	7.02618
50.98	12.4136
51.2	3.19546
51.42	3.17613
51.64	7.19405
51.86	2.0423
52.08	3.89437
52.3	0.706204
52.52	13.7071
52.74	10.1816
52.96	12.787
53.18	8.45378
53.4	5.02692
53.62	6.00503
53.84	2.11703
54.06	0.840435
54.28	16.8559
54.5	2.0903
54.72	6.50347
54.94	10.4744
55.16	12.1873
55.38	4.69517
55.6	3.81164
55.82	3.86793
56.04	5.87127
56.26	6.8739
56.48	9.82633
56.7	0.845937
56.92	7.82185
57.14	15.6275
57.36	27.4547
57.58	10.3259
57.8	3.80001
58.02	4.67583
58.24	9.57897
58.46	3.46871
58.68	8.58062
58.9	25.8025
59.12	26.8801
59.34	15.746
59.56	13.369
59.78	2.04026
60	6.20561
60.22	0.631644
60.44	2.6496
60.66	9.06446
60.88	3.3909
61.1	14.358
61.32	6.22991
61.54	2.27205
61.76	9.35932
61.98	3.44442
62.2	2.98833
62.42	5.91718
62.64	4.86946
62.86	0.803833
63.08	1.51578
63.3	5.75922
63.52	5.04698
63.74	4.09373
63.96	2.93223
64.18	0.777775
64.4	5.67541
64.62	0.612971
64.84	6.4104
65.06	9.16965
65.28	9.96123
65.5	0.603302
65.72	2.12998
65.94	6.92658
66.16	2.66703
66.38	8.23814
66.6	13.2165
66.82	11.9871
67.04	5.8047
67.26	2.85907
67.48	1.90146
67.7	4.75613
67.92	11.5585
68.14	4.50421
68.36	3.92822
68.58	11.7269
68.8	21.7485
69.02	10.4576
69.24	4.33318
69.46	3.22327
69.68	9.00824
69.9	14.8964
70.12	8.08618
70.34	18.3877
70.56	25.2664
70.78	20.5754
71	9.27905
71.22	3.88019
71.44	9.3112
71.66	5.70402
71.88	3.8866
72.1	7.50036
72.32	2.7271
72.54	3.83364
72.76	0.766957
72.98	2.7757
73.2	10.3481
73.42	10.0302
73.64	4.79133
73.86	2.90649
74.08	1.01879
74.3	4.97594
74.52	6.22156
74.74	0.293758
74.96	1.84192
75.18	2.98746
75.4	4.95148
75.62	3.0219
75.84	3.02561
76.06	2.03962
76.28	3.87062
76.5	13.6676
76.72	5.78572
76.94	1.74494
77.16	7.57569
77.38	6.19645
77.6	3.02811
77.82	1.10017
78.04	2.26286
78.26	5.55855
78.48	1.38576
78.7	4.239
78.92	1.50614
79.14	10.2861
79.36	12.9616
79.58	4.85707
79.8	4.64628
80.02	15.6585
80.24	12.6701
80.46	9.85975
80.68	7.18228
80.9	8.5127
81.12	2.62433
81.34	1.45532
81.56	3.51918
81.78	6.83168
82	6.04904
82.22	1.35083
82.44	3.62176
82.66	0.163714
82.88	10.0224
83.1	0.128514
83.32	5.2127
83.54	9.30816
83.76	2.45214
83.98	0.468738
84.2	4.50979
84.42	11.4956
84.64	1.36029
84.86	5.46461
85.08	0.317261
85.3	9.3431
85.52	7.30313
85.74	0.137241
85.96	6.28222
86.18	11.9925
86.4	11.9374
86.62	1.21477
86.84	8.79786
87.06	7.55821
87.28	4.2891
87.5	4.27173
87.72	6.07732
87.94	1.94762
88.16	8.59146
88.38	0.497389
88.6	6.44247
88.82	2.39234
89.04	8.30504
89.26	5.41909
89.48	11.298
89.7	9.18856
89.92	9.8592
