Measurement: Powder, Xray Data XY Processed
Mineral: Vermiculite
Rruff sample: R050490
Ideal chemistry: Mg_0.7_(Mg,Fe^3+^,Al)_6_(Si,Al)_8_O_20_(OH)_4_8H_2_O
Locality: near Tonopah, Nevada, USA
Source: California Institute of Technology
Description: Dark green micaceous fragment
Diffraction sample description: Powder, cell parameters are from single crystal
Measured chemistry: (Mg_2.26_Fe^3+^_0.25_Al_0.25_Ca_0.24_)_Σ=3_(Si_3.50_Al_0.50_)_Σ=4_O_10_((OH)_1.90_F_0.10_)_Σ=2_·4H_2_O
Cell parameters: a: 5.35(1) b: 9.28(2) c: 29.77(9) alpha: 90 beta: 92.5(1) gamma: 90 volume: 1477(3) crystal system: monoclinic
x	intensity
5	0
5.22	6.437
5.44	3.631
5.66	16.113
5.88	51.582
6.1	125.056
6.32	153.595
6.54	134.521
6.76	140.392
6.98	130.301
7.2	77.028
7.42	44.104
7.64	30.612
7.86	40.989
8.08	1.561
8.3	10.254
8.52	0.673
8.74	3.761
8.96	12.465
9.18	7.104
9.4	8.437
9.62	4.084
9.84	21.038
10.06	18.446
10.28	17.323
10.5	10.83
10.72	7.604
10.94	13.697
11.16	3.773
11.38	10.976
11.6	9.486
11.82	3.246
12.04	8.16
12.26	14.602
12.48	18.893
12.7	3.088
12.92	4.383
13.14	1.647
13.36	15.99
13.58	0.418
13.8	11.656
14.02	14.087
14.24	7.313
14.46	19.667
14.68	6.03
14.9	8.186
15.12	13.006
15.34	2.887
15.56	7.887
15.78	11.979
16	11.257
16.22	22.302
16.44	9.739
16.66	13.621
16.88	8.877
17.1	6.1
17.32	1.685
17.54	3.301
17.76	3.678
17.98	8.269
18.2	6.562
18.42	13.554
18.64	1.91
18.86	9.751
19.08	17.294
19.3	35.896
19.52	12.799
19.74	1.62
19.96	7.549
20.18	4.799
20.4	0.872
20.62	0.016
20.84	6.363
21.06	1.574
21.28	8.909
21.5	6.072
21.72	10.037
21.94	7.972
22.16	10.165
22.38	5.893
22.6	5.247
22.82	1.265
23.04	7.262
23.26	8.664
23.48	7.949
23.7	9.536
23.92	12.973
24.14	12.444
24.36	3.893
24.58	12.512
24.8	16.015
25.02	13.123
25.24	17.621
25.46	28.91
25.68	68.417
25.9	15.633
26.12	9.771
26.34	0.622
26.56	1.917
26.78	18.876
27	6.424
27.22	12.913
27.44	10.978
27.66	21.647
27.88	11.947
28.1	3.648
28.32	2.346
28.54	17.788
28.76	11.04
28.98	2.116
29.2	18.291
29.42	33.533
29.64	26.878
29.86	14.232
30.08	10.601
30.3	18.645
30.52	22.944
30.74	11.813
30.96	21.862
31.18	23.687
31.4	15.084
31.62	8.307
31.84	1.138
32.06	2.65
32.28	6.933
32.5	15.977
32.72	2.18
32.94	9.969
33.16	7.839
33.38	2.023
33.6	1.182
33.82	17.553
34.04	30.586
34.26	12.422
34.48	14.313
34.7	25.469
34.92	22.271
35.14	97.621
35.36	44.07
35.58	8.343
35.8	6.507
36.02	12.238
36.24	5.016
36.46	2.686
36.68	15.566
36.9	20.414
37.12	12.539
37.34	11.78
37.56	18.18
37.78	42.075
38	13.07
38.22	9.01
38.44	5.097
38.66	0.207
38.88	2.018
39.1	11.869
39.32	0.513
39.54	6.058
39.76	26.906
39.98	6.042
40.2	17.507
40.42	2.237
40.64	9.794
40.86	10.274
41.08	9.834
41.3	13.718
41.52	23.54
41.74	0.283
41.96	5.756
42.18	1.13
42.4	10.327
42.62	5.453
42.84	13.952
43.06	16.853
43.28	63.952
43.5	60.673
43.72	27.345
43.94	5.56
44.16	8.567
44.38	2.067
44.6	2.746
44.82	12.358
45.04	9.052
45.26	0.721
45.48	1.902
45.7	4.617
45.92	9.056
46.14	5.678
46.36	18.208
46.58	12.868
46.8	10.057
47.02	5.687
47.24	10.228
47.46	3.849
47.68	5.728
47.9	1.745
48.12	6.199
48.34	0.617
48.56	5.475
48.78	5.581
49	15.812
49.22	3.718
49.44	10.813
49.66	6.12
49.88	15.887
50.1	3.088
50.32	5.509
50.54	11.614
50.76	4.935
50.98	12.489
51.2	6.129
51.42	6.546
51.64	7.081
51.86	7.41
52.08	12.803
52.3	11.486
52.52	42.018
52.74	18.681
52.96	4.47
53.18	13.41
53.4	13.686
53.62	11.882
53.84	0.58
54.06	15.008
54.28	16.358
54.5	16.54
54.72	11.822
54.94	2.241
55.16	4.468
55.38	9.746
55.6	8.006
55.82	6.738
56.04	8.441
56.26	6.792
56.48	3.553
56.7	5.081
56.92	6.899
57.14	6.654
57.36	25.753
57.58	45.991
57.8	13.758
58.02	24.434
58.24	7.762
58.46	9.873
58.68	3.101
58.9	0.874
59.12	1.116
59.34	6.024
59.56	3.719
59.78	0.758
60	12.771
60.22	26.419
60.44	10.188
60.66	13.11
60.88	7.843
61.1	1.744
61.32	5.905
61.54	6.386
61.76	7.025
61.98	11.611
62.2	5.165
62.42	11.938
62.64	5.278
62.86	1.595
63.08	13.104
63.3	9.745
63.52	2.485
63.74	1.533
63.96	7.438
64.18	1.961
64.4	1.745
64.62	10.318
64.84	1.379
65.06	6.242
65.28	6.742
65.5	12.062
65.72	7.761
65.94	10.934
66.16	17.437
66.38	13.875
66.6	17.899
66.82	3.721
67.04	2.634
67.26	0.528
67.48	6.608
67.7	9.718
67.92	11.878
68.14	16.403
68.36	19.905
68.58	0.27
68.8	5.973
69.02	6.612
69.24	3.989
69.46	6.353
69.68	6.902
69.9	3.476
70.12	5.67
70.34	1.799
70.56	11.638
70.78	6.049
71	3.018
71.22	1.91
71.44	10.843
71.66	5.164
71.88	5.155
72.1	1.179
72.32	4.956
72.54	20.222
72.76	8.71
72.98	3.933
73.2	0.291
73.42	1.735
73.64	13.957
73.86	6.507
74.08	13.647
74.3	11.008
74.52	9.047
74.74	11.436
74.96	7.532
75.18	9.708
75.4	15.64
75.62	9.653
75.84	9.388
76.06	10.272
76.28	11.979
76.5	5.891
76.72	6.746
76.94	9.686
77.16	11.955
77.38	5.745
77.6	6.854
77.82	4.425
78.04	7.568
78.26	5.898
78.48	2.241
78.7	9.635
78.92	3.324
79.14	0.147
79.36	0.072
79.58	7.844
79.8	7.926
80.02	2.746
80.24	8.404
80.46	7.43
80.68	7.348
80.9	10.784
81.12	1.783
81.34	7.063
81.56	7.101
81.78	11.17
82	10.156
82.22	15.854
82.44	11.918
82.66	13.912
82.88	4.775
83.1	4.545
83.32	14.108
83.54	5.919
83.76	0.876
83.98	4.777
84.2	13.719
84.42	5.616
84.64	4.95
84.86	10.221
85.08	9.505
85.3	8.58
85.52	2.948
85.74	8.215
85.96	12.335
86.18	17.255
86.4	0.629
86.62	0.289
86.84	4.736
87.06	4.731
87.28	8.282
87.5	8.253
87.72	13.376
87.94	3.076
88.16	9.852
88.38	12.871
88.6	5.664
88.82	7.585
89.04	6.707
89.26	10.846
89.48	13.747
89.7	8.229
89.92	10.947
