Measurement: Powder, Xray Data XY Processed
Mineral: Vesuvianite
Rruff sample: R050035
Ideal chemistry: (Ca,Na)_19_(Al,Mg,Fe^3+^)_13_(SiO_4_)_10_(Si_2_O_7_)_4_(OH,F,O)_10_
Locality: Olmsteadville, New York, USA
Source: University of Arizona Mineral Museum
Description: Brown single crystal fragment
Diffraction sample description: Powder
Measured chemistry: (Ca_18.66_Na_0.34_)_Σ=19_(Al_9.16_Mg_1.28_Ti_1.21_Fe^3+^_0.89_Fe^2+^_0.46_)_Σ=13_Si_18_O_68_((OH)_4.70_F_3.18_O_2.12_)_Σ=10_
Cell parameters: a: 15.5623(4) b: 15.5623(4) c: 11.8034(6) alpha: 90. beta: 90. gamma: 90. volume: 2858.6(1) crystal system: tetragonal
x	intensity
5	0
5.22	9.491
5.44	5.058
5.66	14.795
5.88	7.143
6.1	10.572
6.32	5.193
6.54	9.895
6.76	14.649
6.98	15.16
7.2	10.864
7.42	8.065
7.64	0.711
7.86	3.825
8.08	31.596
8.3	12.118
8.52	12.543
8.74	8.067
8.96	9.547
9.18	9.198
9.4	7.875
9.62	11.497
9.84	4.68
10.06	10.617
10.28	9.868
10.5	15.463
10.72	5.608
10.94	3.164
11.16	3.902
11.38	7.84
11.6	5.615
11.82	8.162
12.04	8.008
12.26	3.806
12.48	6.827
12.7	16.887
12.92	11.886
13.14	6.077
13.36	7.856
13.58	5.97
13.8	2.404
14.02	1.279
14.24	16.437
14.46	8.511
14.68	7.717
14.9	5.615
15.12	14.623
15.34	4.553
15.56	11.379
15.78	5.459
16	12.511
16.22	5.324
16.44	0.644
16.66	10.869
16.88	3.025
17.1	10.927
17.32	4.985
17.54	5.499
17.76	8.838
17.98	0.158
18.2	8.085
18.42	6.992
18.64	9.074
18.86	19.854
19.08	13.592
19.3	4.029
19.52	8.98
19.74	15.088
19.96	12.04
20.18	2.894
20.4	13.862
20.62	7.975
20.84	11.977
21.06	7.954
21.28	7.123
21.5	3.502
21.72	2.019
21.94	7.028
22.16	37.918
22.38	4.695
22.6	2.635
22.82	13.904
23.04	11.107
23.26	5.171
23.48	4.314
23.7	9.94
23.92	1.167
24.14	9.909
24.36	5.932
24.58	3.746
24.8	4.677
25.02	4.648
25.24	4.247
25.46	6.185
25.68	46.883
25.9	9.762
26.12	1.548
26.34	7.437
26.56	0.295
26.78	2.486
27	22.609
27.22	9.89
27.44	21.137
27.66	1.807
27.88	3.706
28.1	12.575
28.32	6.456
28.54	3.302
28.76	1.015
28.98	8.729
29.2	17.064
29.42	6.659
29.64	6.983
29.86	14.823
30.08	3.559
30.3	142.586
30.52	16.291
30.74	12.497
30.96	0.359
31.18	13.782
31.4	23.84
31.62	0.983
31.84	0.029
32.06	8.328
32.28	11.12
32.5	143.73
32.72	42.237
32.94	15.565
33.16	6.408
33.38	2.152
33.6	20.027
33.82	4.955
34.04	0.339
34.26	11.581
34.48	72.218
34.7	107.028
34.92	6.35
35.14	11.042
35.36	2.866
35.58	18.857
35.8	8.932
36.02	4.409
36.24	3.606
36.46	24.813
36.68	35.743
36.9	58.872
37.12	3.979
37.34	9.735
37.56	0.523
37.78	8.578
38	19.034
38.22	10.035
38.44	21.695
38.66	17.26
38.88	10.353
39.1	7.358
39.32	5.442
39.54	5.993
39.76	5.314
39.98	5.407
40.2	3.073
40.42	9.935
40.64	3.338
40.86	18.401
41.08	19.283
41.3	9.796
41.52	4.598
41.74	19.754
41.96	2.439
42.18	8.183
42.4	16.069
42.62	51.024
42.84	11.953
43.06	0.804
43.28	2.344
43.5	10.323
43.72	14.42
43.94	31.58
44.16	0.468
44.38	15.436
44.6	9.753
44.82	12.039
45.04	34.838
45.26	0.001
45.48	15.491
45.7	6.089
45.92	6.56
46.14	12.529
46.36	12.41
46.58	13.228
46.8	3.158
47.02	9.697
47.24	3.814
47.46	15.752
47.68	17.569
47.9	11.362
48.12	12.043
48.34	19.441
48.56	12.807
48.78	17.194
49	5.857
49.22	8.019
49.44	13.647
49.66	7.981
49.88	9.243
50.1	0.256
50.32	18.397
50.54	5.471
50.76	12.238
50.98	9.466
51.2	3.629
51.42	1.468
51.64	5.589
51.86	33.301
52.08	6.578
52.3	7.487
52.52	1.497
52.74	6.336
52.96	15.412
53.18	11.693
53.4	7.439
53.62	9.985
53.84	17.56
54.06	3.312
54.28	6.919
54.5	0.472
54.72	10.349
54.94	8.326
55.16	24.317
55.38	35.145
55.6	3.563
55.82	0.517
56.04	13.732
56.26	2.111
56.48	13.212
56.7	96.482
56.92	60.045
57.14	0.068
57.36	0.197
57.58	5.205
57.8	3.105
58.02	1.343
58.24	2.291
58.46	10.096
58.68	16.716
58.9	14.961
59.12	1.374
59.34	12.344
59.56	11.396
59.78	2.116
60	2.181
60.22	4.884
60.44	8.835
60.66	14.83
60.88	21.793
61.1	0.882
61.32	16.888
61.54	3.33
61.76	4.272
61.98	17.51
62.2	9.108
62.42	11.179
62.64	1.298
62.86	13.052
63.08	16.406
63.3	5.795
63.52	16.934
63.74	8.011
63.96	12.256
64.18	2.251
64.4	14.636
64.62	7.458
64.84	8.64
65.06	12.474
65.28	1.588
65.5	11.523
65.72	0.153
65.94	1.719
66.16	2.581
66.38	8.07
66.6	6.733
66.82	4.488
67.04	1.159
67.26	6.774
67.48	20.631
67.7	7.175
67.92	4.122
68.14	18.654
68.36	16.752
68.58	20.888
68.8	11.911
69.02	1.11
69.24	9.297
69.46	4.45
69.68	1.522
69.9	27.701
70.12	22.866
70.34	8.222
70.56	6.325
70.78	4.341
71	0.729
71.22	4.204
71.44	3.248
71.66	11.23
71.88	7.3
72.1	8.316
72.32	0.336
72.54	9.341
72.76	23.419
72.98	14.221
73.2	9.106
73.42	9.382
73.64	4.467
73.86	4.394
74.08	0.669
74.3	5.304
74.52	0.311
74.74	4.323
74.96	7.169
75.18	21.79
75.4	13.9
75.62	11.217
75.84	5.401
76.06	8.727
76.28	0.729
76.5	13.841
76.72	1.948
76.94	12.089
77.16	1.123
77.38	9.997
77.6	0.213
77.82	10.874
78.04	17.972
78.26	5.714
78.48	4.606
78.7	1.228
78.92	1.928
79.14	7.997
79.36	1.218
79.58	4.414
79.8	2.419
80.02	7.263
80.24	5.286
80.46	1.685
80.68	8.334
80.9	4.265
81.12	4.138
81.34	4.084
81.56	7.946
81.78	9.906
82	6.822
82.22	6.813
82.44	8.757
82.66	7.765
82.88	0.403
83.1	3.569
83.32	3.085
83.54	11.222
83.76	3.167
83.98	6.322
84.2	8.204
84.42	5.172
84.64	2.247
84.86	12.19
85.08	6.401
85.3	5.384
85.52	14.125
85.74	3.212
85.96	7.117
86.18	7.13
86.4	3.877
86.62	3.682
86.84	0.516
87.06	6.225
87.28	3.001
87.5	0.427
87.72	13.375
87.94	10.727
88.16	6.705
88.38	6.817
88.6	33.891
88.82	12.836
89.04	14.954
89.26	1.695
89.48	9.906
89.7	7.392
89.92	13.807
