Measurement: Powder, Xray Data XY Processed
Mineral: Vesuvianite
Rruff sample: R050056
Ideal chemistry: (Ca,Na)_19_(Al,Mg,Fe^3+^)_13_(SiO_4_)_10_(Si_2_O_7_)_4_(OH,F,O)_10_
Locality: Jeffrey Quarry, Asbestos, Quebec, Canada
Source: Tony Gordian
Description: Green prismatic single crystal
Diffraction sample description: Powder
Measured chemistry: Ca_19_(Al_.804_Mg_.149_Fe_.045_Mn_.002_)_13_Si_18_O_68_(OH)_10_
Cell parameters: a: 15.5331(3) b: 15.5331(3) c: 11.8147(5) alpha: 90. beta: 90. gamma: 90. volume: 2850.6(1) crystal system: tetragonal
x	intensity
5	0
5.22	4.996
5.44	7.13
5.66	14.749
5.88	1.382
6.1	4.483
6.32	0.06
6.54	1.716
6.76	18.855
6.98	5.088
7.2	9.254
7.42	19.78
7.64	13.281
7.86	4.259
8.08	59.796
8.3	12.353
8.52	9.942
8.74	4.386
8.96	3.103
9.18	0.551
9.4	6.023
9.62	11.404
9.84	5.529
10.06	8.401
10.28	7.42
10.5	2.914
10.72	2.947
10.94	12.768
11.16	4.759
11.38	8.619
11.6	5.509
11.82	4.613
12.04	8.549
12.26	6.719
12.48	11.873
12.7	4.008
12.92	6.676
13.14	13.292
13.36	3.432
13.58	4.668
13.8	13.713
14.02	15.819
14.24	3.87
14.46	5.03
14.68	5.049
14.9	7.048
15.12	10.042
15.34	3.272
15.56	6.926
15.78	1.034
16	3.27
16.22	1.581
16.44	13.821
16.66	0.195
16.88	2.866
17.1	9.035
17.32	4.978
17.54	5.098
17.76	0.107
17.98	5.08
18.2	7.193
18.42	3.239
18.64	4.034
18.86	18.905
19.08	6.956
19.3	4.981
19.52	2.985
19.74	8.08
19.96	4.078
20.18	7.311
20.4	5.471
20.62	0.435
20.84	3.34
21.06	2.405
21.28	1.649
21.5	12.843
21.72	5.845
21.94	10.852
22.16	39.908
22.38	2.127
22.6	4.82
22.82	11.671
23.04	5.637
23.26	7.477
23.48	1.501
23.7	6.442
23.92	5.084
24.14	1.164
24.36	2.166
24.58	0.106
24.8	9.23
25.02	10.238
25.24	9.313
25.46	15.512
25.68	68.848
25.9	1.247
26.12	10.634
26.34	5.422
26.56	3.41
26.78	2.742
27	9.035
27.22	7.021
27.44	15.568
27.66	8.701
27.88	13.282
28.1	4.564
28.32	2.142
28.54	2.84
28.76	1.536
28.98	10.154
29.2	21.848
29.42	36.687
29.64	2.84
29.86	36.626
30.08	14.477
30.3	142.374
30.52	9.569
30.74	17.86
30.96	11.052
31.18	11.114
31.4	13.213
31.62	7.354
31.84	2.998
32.06	7.203
32.28	7.36
32.5	46.507
32.72	102.085
32.94	9.095
33.16	7.836
33.38	4.646
33.6	19.6
33.82	1.553
34.04	4.428
34.26	9.316
34.48	170.087
34.7	197.629
34.92	15.93
35.14	3.499
35.36	2.307
35.58	14.323
35.8	1.33
36.02	14.574
36.24	1.704
36.46	9.965
36.68	144.275
36.9	25.005
37.12	1.637
37.34	7.578
37.56	2.425
37.78	1.496
38	19.605
38.22	16.787
38.44	4.984
38.66	22.948
38.88	14.949
39.1	0.972
39.32	13.217
39.54	1.803
39.76	16.071
39.98	0.186
40.2	0.374
40.42	9.727
40.64	9.727
40.86	11.264
41.08	36.137
41.3	1.138
41.52	9.509
41.74	9.195
41.96	18.535
42.18	16.519
42.4	18.282
42.62	23.1
42.84	8.543
43.06	2.496
43.28	6.503
43.5	11.784
43.72	7.862
43.94	25.319
44.16	5.496
44.38	21.661
44.6	8.62
44.82	11.253
45.04	8.76
45.26	6.921
45.48	15.949
45.7	2.56
45.92	1.38
46.14	3.457
46.36	13.025
46.58	7.883
46.8	8.724
47.02	9.406
47.24	0.051
47.46	5.494
47.68	4.414
47.9	5.369
48.12	3.369
48.34	28.619
48.56	8.853
48.78	8.113
49	5.591
49.22	6.005
49.44	12.34
49.66	7.669
49.88	6.127
50.1	13.42
50.32	2.563
50.54	6.432
50.76	10.569
50.98	4.611
51.2	5.689
51.42	0.586
51.64	0.667
51.86	65.647
52.08	9.917
52.3	7.783
52.52	5.825
52.74	0.316
52.96	8.755
53.18	3.559
53.4	20.598
53.62	1.559
53.84	10.477
54.06	5.254
54.28	1.091
54.5	7.727
54.72	11.559
54.94	4.402
55.16	39.44
55.38	36.153
55.6	4.202
55.82	8.933
56.04	2.13
56.26	8.123
56.48	23.053
56.7	81.415
56.92	58.456
57.14	0.5
57.36	0.121
57.58	6.734
57.8	3.738
58.02	2.682
58.24	19.605
58.46	0.516
58.68	8.318
58.9	10.258
59.12	8.79
59.34	10.653
59.56	26.921
59.78	0.615
60	19.701
60.22	14.096
60.44	1.2
60.66	0.687
60.88	14.244
61.1	3.28
61.32	0.256
61.54	7.837
61.76	14.925
61.98	51.673
62.2	11.099
62.42	7.779
62.64	5.276
62.86	12.697
63.08	18.004
63.3	0.275
63.52	5.389
63.74	5.429
63.96	2.705
64.18	5.321
64.4	6.583
64.62	9.502
64.84	5.678
65.06	2.608
65.28	1.758
65.5	5.941
65.72	7.974
65.94	3.426
66.16	12.332
66.38	1.183
66.6	6.616
66.82	8.444
67.04	10.296
67.26	1.062
67.48	6.427
67.7	10.395
67.92	5.131
68.14	12.519
68.36	13.915
68.58	0.817
68.8	11.887
69.02	5.882
69.24	2.169
69.46	12.048
69.68	8.137
69.9	12.255
70.12	15.139
70.34	4.586
70.56	11.515
70.78	3.898
71	5.984
71.22	6.245
71.44	9.487
71.66	4.549
71.88	6.35
72.1	6.3
72.32	4.273
72.54	8.23
72.76	2.917
72.98	10.414
73.2	9.086
73.42	4.031
73.64	1.285
73.86	3.455
74.08	4.491
74.3	1.529
74.52	8.627
74.74	6.806
74.96	7.745
75.18	10.38
75.4	6.728
75.62	16.155
75.84	3.335
76.06	5.56
76.28	7.776
76.5	3.851
76.72	0.838
76.94	9.269
77.16	5.124
77.38	6.941
77.6	16.708
77.82	11.402
78.04	5.271
78.26	10.297
78.48	3.283
78.7	2.711
78.92	4.784
79.14	1.621
79.36	4.916
79.58	4.104
79.8	8.316
80.02	4.324
80.24	6.348
80.46	0.537
80.68	1.531
80.9	2.461
81.12	4.973
81.34	2.999
81.56	2.291
81.78	3.169
82	4.019
82.22	3.976
82.44	5.794
82.66	3.771
82.88	4.977
83.1	2.825
83.32	6.085
83.54	4.029
83.76	2.911
83.98	1.452
84.2	2.098
84.42	3.968
84.64	9.683
84.86	4.615
85.08	5.723
85.3	6.405
85.52	4.587
85.74	3.32
85.96	9.466
86.18	0.119
86.4	0.093
86.62	5.595
86.84	9.062
87.06	10.153
87.28	6.314
87.5	13.222
87.72	8.237
87.94	8.127
88.16	3.075
88.38	14.082
88.6	2.845
88.82	17.714
89.04	15.131
89.26	16.165
89.48	8.319
89.7	2.836
89.92	3.363
