Measurement: Powder, Xray Data XY Processed
Mineral: Vesuvianite
Rruff sample: R050489
Ideal chemistry: (Ca,Na)_19_(Al,Mg,Fe^3+^)_13_(SiO_4_)_10_(Si_2_O_7_)_4_(OH,F,O)_10_
Locality: Crestmore Quarry, Riverside County, California, USA
Source: California Institute of Technology
Description: Green prismatic crystal
Diffraction sample description: Powder
Measured chemistry: Ca_19.00_(Al_9.56_Mg_2.36_Fe^2+^_0.86_Ti_0.22_)_Σ=13_Si_18.00_O_68_((OH)_9.59_F_0.41_)_Σ=10_ ; B not measured
Cell parameters: a: 15.5943(8) b: 15.5943(8) c: 11.829(1) alpha: 90. beta: 90. gamma: 90. volume: 2876.7(2) crystal system: tetragonal
x	intensity
5	0
5.22	14.7972
5.44	15.0035
5.66	12.2885
5.88	15.6056
6.1	15.8686
6.32	16.3683
6.54	5.08119
6.76	17.7578
6.98	12.2801
7.2	9.13662
7.42	9.16811
7.64	5.79887
7.86	4.83757
8.08	14.5854
8.3	22.1063
8.52	1.45949
8.74	0.231479
8.96	5.71734
9.18	0.898189
9.4	9.04439
9.62	9.05523
9.84	12.7735
10.06	6.16667
10.28	7.39592
10.5	3.57044
10.72	9.5529
10.94	11.7985
11.16	4.5752
11.38	5.31496
11.6	12.3248
11.82	5.44365
12.04	10.5029
12.26	0.702017
12.48	9.77621
12.7	10.4684
12.92	8.73264
13.14	12.01
13.36	5.00526
13.58	2.8719
13.8	0.34024
14.02	8.48717
14.24	3.59099
14.46	15.9507
14.68	26.1068
14.9	10.0423
15.12	11.0567
15.34	12.2182
15.56	7.37518
15.78	10.3091
16	5.37526
16.22	3.62409
16.44	9.15358
16.66	11.2719
16.88	16.2606
17.1	12.2266
17.32	9.30671
17.54	0.445029
17.76	12.275
17.98	1.89497
18.2	1.14864
18.42	3.11031
18.64	9.97216
18.86	24.489
19.08	2.87113
19.3	3.74441
19.52	9.71491
19.74	4.93678
19.96	1.8245
20.18	4.86707
20.4	3.97284
20.62	4.86685
20.84	3.81657
21.06	6.732
21.28	1.70975
21.5	0.565906
21.72	7.51984
21.94	14.297
22.16	7.15991
22.38	1.07033
22.6	10.0418
22.82	15.1338
23.04	7.12372
23.26	0.166532
23.48	9.78212
23.7	9.83683
23.92	4.65822
24.14	7.67532
24.36	0.327612
24.58	2.45828
24.8	7.42997
25.02	4.47053
25.24	5.52905
25.46	17.9303
25.68	17.777
25.9	3.63609
26.12	7.58613
26.34	4.41234
26.56	6.54467
26.78	17.6833
27	0.703057
27.22	8.01719
27.44	31.993
27.66	2.42499
27.88	3.69463
28.1	4.09125
28.32	7.52089
28.54	4.01051
28.76	5.74528
28.98	30.3341
29.2	47.7369
29.42	3.09298
29.64	29.6987
29.86	13.1541
30.08	12.2045
30.3	88.2114
30.52	11.4504
30.74	14.8078
30.96	1.71036
31.18	2.21701
31.4	11.1978
31.62	5.33328
31.84	0.256474
32.06	8.78939
32.28	8.43343
32.5	264.291
32.72	16.6019
32.94	5.73403
33.16	3.32069
33.38	14.0243
33.6	10.9299
33.82	0.11399
34.04	7.88343
34.26	7.37893
34.48	198.617
34.7	13.5376
34.92	13.5928
35.14	10.6131
35.36	16.4492
35.58	8.69992
35.8	3.89467
36.02	0.648043
36.24	9.80751
36.46	113.047
36.68	24.2709
36.9	10.7402
37.12	8.91473
37.34	1.00227
37.56	11.7943
37.78	34.818
38	2.81916
38.22	26.0896
38.44	6.52557
38.66	32.3529
38.88	3.17726
39.1	23.1966
39.32	3.43477
39.54	6.56083
39.76	7.57409
39.98	5.83416
40.2	8.78798
40.42	7.12471
40.64	2.79851
40.86	10.8355
41.08	6.2416
41.3	11.1018
41.52	4.08774
41.74	17.3846
41.96	12.2839
42.18	8.29101
42.4	30.3004
42.62	29.1943
42.84	4.79004
43.06	5.69908
43.28	22.6216
43.5	5.35078
43.72	23.2464
43.94	10.9937
44.16	11.214
44.38	7.08323
44.6	10.3471
44.82	2.79221
45.04	5.2166
45.26	37.3236
45.48	8.58229
45.7	4.79027
45.92	6.98527
46.14	14.9973
46.36	3.08644
46.58	3.25022
46.8	2.17335
47.02	11.9719
47.24	18.7961
47.46	1.79184
47.68	8.93899
47.9	3.7607
48.12	14.4759
48.34	12.6633
48.56	11.831
48.78	3.0712
49	2.30475
49.22	0.702323
49.44	4.10961
49.66	7.45696
49.88	2.7215
50.1	9.70552
50.32	0.124644
50.54	2.5083
50.76	9.51447
50.98	15.5863
51.2	15.5657
51.42	6.88908
51.64	16.9495
51.86	23.091
52.08	12.2027
52.3	1.3134
52.52	9.383
52.74	2.22555
52.96	3.31656
53.18	18.5219
53.4	17.5376
53.62	7.2637
53.84	2.00229
54.06	2.77401
54.28	0.561869
54.5	37.532
54.72	3.42493
54.94	12.5281
55.16	17.7411
55.38	4.51712
55.6	3.23942
55.82	2.27171
56.04	9.54854
56.26	9.57573
56.48	55.7329
56.7	49.4887
56.92	5.01558
57.14	6.24062
57.36	8.15132
57.58	6.71583
57.8	8.09291
58.02	2.0338
58.24	6.89793
58.46	14.6925
58.68	12.3748
58.9	10.2237
59.12	29.3024
59.34	6.67396
59.56	5.35844
59.78	8.24233
60	6.54168
60.22	6.16525
60.44	1.24299
60.66	10.2958
60.88	2.50881
61.1	10.6709
61.32	1.13789
61.54	12.9689
61.76	26.0292
61.98	1.53149
62.2	3.68818
62.42	8.00138
62.64	6.59135
62.86	2.82282
63.08	11.3391
63.3	12.343
63.52	2.35734
63.74	0.853395
63.96	0.858823
64.18	11.0568
64.4	8.01102
64.62	10.1527
64.84	5.9606
65.06	8.90321
65.28	8.96039
65.5	8.0895
65.72	11.0175
65.94	5.98773
66.16	3.89493
66.38	2.77213
66.6	6.5663
66.82	4.51433
67.04	0.535603
67.26	22.0806
67.48	16.9381
67.7	1.80103
67.92	1.97817
68.14	4.07578
68.36	12.9048
68.58	5.86518
68.8	13.8568
69.02	5.93161
69.24	7.66457
69.46	4.67125
69.68	22.6972
69.9	11.7801
70.12	3.8114
70.34	1.83865
70.56	11.0244
70.78	9.49213
71	1.66602
71.22	8.78934
71.44	0.121774
71.66	3.01117
71.88	7.0411
72.1	12.9611
72.32	7.0543
72.54	11.4807
72.76	11.0495
72.98	11.7709
73.2	3.40991
73.42	15.2451
73.64	6.1155
73.86	4.95245
74.08	4.89095
74.3	14.8684
74.52	9.07753
74.74	17.0161
74.96	20.8578
75.18	7.03132
75.4	8.49169
75.62	5.96978
75.84	5.18089
76.06	0.535529
76.28	2.71124
76.5	9.8168
76.72	0.151219
76.94	0.902802
77.16	1.30754
77.38	7.6726
77.6	9.5239
77.82	15.1896
78.04	4.99246
78.26	2.3774
78.48	6.49292
78.7	13.4951
78.92	7.53044
79.14	3.49511
79.36	1.3938
79.58	8.56374
79.8	10.6679
80.02	5.85994
80.24	0.812854
80.46	9.83868
80.68	7.80352
80.9	3.55978
81.12	1.33308
81.34	8.80362
81.56	5.73413
81.78	4.08573
82	1.181
82.22	10.238
82.44	3.29597
82.66	6.50897
82.88	6.66697
83.1	0.724586
83.32	6.89959
83.54	9.89667
83.76	8.77642
83.98	13.6294
84.2	8.78421
84.42	6.8306
84.64	9.76664
84.86	8.55979
85.08	3.1003
85.3	12.031
85.52	7.16
85.74	4.01178
85.96	0.128431
86.18	7.94831
86.4	5.72488
86.62	9.24011
86.84	7.36869
87.06	11.2306
87.28	6.08732
87.5	4.0386
87.72	1.92038
87.94	7.65269
88.16	10.5363
88.38	12.6292
88.6	12.7674
88.82	5.96715
89.04	14.9527
89.26	11.3566
89.48	0.549075
89.7	7.38389
89.92	2.19663
