Measurement: Powder, Xray Data XY Processed
Mineral: Viitaniemiite
Rruff sample: R060052
Ideal chemistry: NaCaAlPO_4_F_3_
Locality: Paprook, Afghanistan
Source: Marcus Origlieri
Description: Clear, colorless fragment
Diffraction sample description: Powder
Measured chemistry: Na_1.00_(Ca_0.97_Mn^2+^_0.03_)_Σ=1_Al_1.00_P_1.00_O_4_(F_1.60_(OH)_1.40_)_Σ=3_
Cell parameters: a: 5.5090(5) b: 7.2295(4) c: 6.8644(5) alpha: 90 beta: 108.992(7) gamma: 90 volume: 258.51(2) crystal system: monoclinic
x	intensity
5	0
5.22	6.792
5.44	0.444
5.66	0.161
5.88	5.117
6.1	8.869
6.32	16.911
6.54	12.912
6.76	0.958
6.98	2.754
7.2	11.221
7.42	5.549
7.64	3.227
7.86	5.901
8.08	2.779
8.3	2.288
8.52	10.826
8.74	5.744
8.96	1.439
9.18	3.377
9.4	4.409
9.62	10.495
9.84	0.314
10.06	4.044
10.28	5.507
10.5	1.625
10.72	4.869
10.94	2.854
11.16	6.677
11.38	1.006
11.6	0.035
11.82	3.947
12.04	6.96
12.26	10.299
12.48	3.445
12.7	6.14
12.92	7.137
13.14	3.452
13.36	1.551
13.58	6.682
13.8	2.729
14.02	2.257
14.24	1.413
14.46	2.751
14.68	6.7
14.9	8.256
15.12	0.024
15.34	0.549
15.56	2.281
15.78	0.19
16	0.057
16.22	5.045
16.44	0.278
16.66	5.033
16.88	6.611
17.1	32.303
17.32	2.797
17.54	3.581
17.76	0.668
17.98	11.705
18.2	10.858
18.42	65.179
18.64	4.164
18.86	1.279
19.08	3.876
19.3	2.327
19.52	0.598
19.74	5.042
19.96	0.452
20.18	1.144
20.4	8.441
20.62	6.249
20.84	0.983
21.06	1.807
21.28	2.466
21.5	0.269
21.72	1.194
21.94	24.493
22.16	3.531
22.38	1.829
22.6	3.867
22.82	3.051
23.04	0.297
23.26	2.931
23.48	2.147
23.7	3.072
23.92	0.5
24.14	4.834
24.36	0.438
24.58	0.319
24.8	10.394
25.02	7.902
25.24	18.851
25.46	5.78
25.68	1.431
25.9	1.397
26.12	1.23
26.34	7.76
26.56	5.345
26.78	0.955
27	0.164
27.22	7.752
27.44	48.947
27.66	19.044
27.88	5.302
28.1	31.696
28.32	27.731
28.54	11.848
28.76	0.851
28.98	5.718
29.2	3.468
29.42	5.203
29.64	5.973
29.86	7.572
30.08	72.788
30.3	52.382
30.52	20.123
30.74	323.504
30.96	23.552
31.18	7.326
31.4	1.914
31.62	0.661
31.84	3.451
32.06	1.31
32.28	0.167
32.5	4.839
32.72	11.234
32.94	3.964
33.16	1.565
33.38	2.356
33.6	0.111
33.82	6.913
34.04	3.931
34.26	7.47
34.48	91.062
34.7	12.743
34.92	0.186
35.14	1.245
35.36	10.193
35.58	37.127
35.8	6.169
36.02	1.246
36.24	0.434
36.46	5.927
36.68	15.316
36.9	0.292
37.12	32.302
37.34	9.156
37.56	3.703
37.78	6.59
38	1.878
38.22	8.91
38.44	9.814
38.66	19.757
38.88	2.484
39.1	0.149
39.32	10.344
39.54	28.454
39.76	20.896
39.98	7.967
40.2	2.977
40.42	0.101
40.64	0.077
40.86	3.738
41.08	12.28
41.3	118.39
41.52	25.422
41.74	19.104
41.96	10.818
42.18	5.648
42.4	0.704
42.62	0.348
42.84	3.165
43.06	9.747
43.28	15.172
43.5	0.846
43.72	6.655
43.94	1.485
44.16	0.466
44.38	2.428
44.6	15.733
44.82	6.959
45.04	17.26
45.26	5.423
45.48	6.005
45.7	3.438
45.92	0.585
46.14	3.124
46.36	7.984
46.58	2.697
46.8	8.591
47.02	27.147
47.24	53.485
47.46	10.425
47.68	2.946
47.9	0.199
48.12	6.007
48.34	0.297
48.56	0.341
48.78	4.352
49	4.087
49.22	12.928
49.44	5.598
49.66	0.446
49.88	0.032
50.1	2.061
50.32	0.079
50.54	71.343
50.76	18.215
50.98	22.089
51.2	11.219
51.42	1.562
51.64	4.605
51.86	11.402
52.08	7.689
52.3	5.97
52.52	2.537
52.74	1.84
52.96	0.218
53.18	2.503
53.4	8.634
53.62	1.798
53.84	10.405
54.06	7.006
54.28	6.742
54.5	0.794
54.72	0.591
54.94	0.429
55.16	0.302
55.38	0.041
55.6	4.772
55.82	5.981
56.04	5.415
56.26	36.864
56.48	15.438
56.7	11.248
56.92	0.123
57.14	5.876
57.36	8.856
57.58	2.844
57.8	0.071
58.02	31.13
58.24	9.961
58.46	43.046
58.68	18.838
58.9	2.274
59.12	0.41
59.34	17.45
59.56	6.984
59.78	6.503
60	0.225
60.22	0.145
60.44	1.525
60.66	0.917
60.88	1.942
61.1	6.868
61.32	1.532
61.54	0.77
61.76	4.522
61.98	0.546
62.2	45.686
62.42	43.83
62.64	15.775
62.86	11.495
63.08	0.292
63.3	0.285
63.52	5.129
63.74	4.043
63.96	3.386
64.18	5.148
64.4	0.792
64.62	7.226
64.84	5.804
65.06	8.62
65.28	5.663
65.5	2.126
65.72	4.778
65.94	11.388
66.16	12.843
66.38	3.143
66.6	3.869
66.82	0.42
67.04	0.237
67.26	8.67
67.48	7.759
67.7	2.631
67.92	0.212
68.14	4.187
68.36	17.649
68.58	11.298
68.8	10.055
69.02	3.639
69.24	6.462
69.46	3.549
69.68	13.011
69.9	10.185
70.12	2.244
70.34	0.084
70.56	1.943
70.78	2.092
71	5.156
71.22	7.248
71.44	8.445
71.66	6.299
71.88	1.323
72.1	2.13
72.32	12.389
72.54	8.527
72.76	6.484
72.98	6.328
73.2	0.09
73.42	0.051
73.64	3.822
73.86	3.893
74.08	7.879
74.3	12.808
74.52	3.971
74.74	4.966
74.96	3.916
75.18	0.036
75.4	3.263
75.62	0.4
75.84	0.123
76.06	4.134
76.28	2.343
76.5	2.538
76.72	6.699
76.94	1.549
77.16	3.615
77.38	6.981
77.6	8.123
77.82	5.317
78.04	0.024
78.26	0.047
78.48	0.775
78.7	2.65
78.92	6.708
79.14	0.037
79.36	5.762
79.58	7.026
79.8	0.016
80.02	2.875
80.24	6.818
80.46	1.398
80.68	3.159
80.9	2.793
81.12	0.164
81.34	0.261
81.56	7.274
81.78	2.898
82	1.322
82.22	6.388
82.44	9.498
82.66	6.72
82.88	0.065
83.1	3.937
83.32	0.185
83.54	1.589
83.76	1.784
83.98	0.023
84.2	0.176
84.42	5.5
84.64	9.304
84.86	4.046
85.08	0.403
85.3	4.664
85.52	2.579
85.74	2.52
85.96	6.328
86.18	10.335
86.4	4.371
86.62	0.456
86.84	2.495
87.06	3.654
87.28	0.871
87.5	2.245
87.72	8.385
87.94	1.842
88.16	2.622
88.38	5.663
88.6	3.491
88.82	3.13
89.04	8.889
89.26	8.774
89.48	3.449
89.7	8.27
89.92	10.123
