Measurement: Powder, Xray Data XY Processed
Mineral: Villiaumite
Rruff sample: R060916
Ideal chemistry: NaF
Locality: St. Hilaire, Quebec, Canada
Source: Royal Ontario Museum
Description: Reddish transparent single cleavage
Diffraction sample description: Powder
Measured chemistry: Na_1.00_F_1.00_
Cell parameters: a: 4.6323(1) b: 4.6323(1) c: 4.6323(1) alpha: 90 beta: 90 gamma: 90 volume: 99.398(6) crystal system: cubic
x	intensity
5	0
5.22	6.9803
5.44	9.9956
5.66	1.59778
5.88	5.65094
6.1	9.87124
6.32	3.58693
6.54	11.1305
6.76	3.67221
6.98	9.61041
7.2	5.9017
7.42	0.070973
7.64	4.1411
7.86	5.1119
8.08	16.0635
8.3	3.00798
8.52	15.0851
8.74	13.8825
8.96	12.1328
9.18	3.42535
9.4	3.37563
9.62	2.69141
9.84	9.15194
10.06	4.04905
10.28	5.11999
10.5	4.64944
10.72	8.67008
10.94	9.43023
11.16	12.7807
11.38	7.17359
11.6	8.14967
11.82	2.21803
12.04	6.54764
12.26	19.218
12.48	13.457
12.7	14.8464
12.92	6.22729
13.14	3.43501
13.36	13.7948
13.58	7.38532
13.8	11.7093
14.02	1.80681
14.24	17.1872
14.46	11.8117
14.68	17.8247
14.9	1.17931
15.12	7.69379
15.34	9.8368
15.56	13.8681
15.78	3.17298
16	11.8902
16.22	12.2363
16.44	6.5083
16.66	11.3152
16.88	9.47066
17.1	0.376276
17.32	9.61359
17.54	7.83859
17.76	9.01569
17.98	5.28132
18.2	13.3029
18.42	3.2225
18.64	10.4159
18.86	12.6028
19.08	5.87244
19.3	9.22866
19.52	13.9524
19.74	9.86787
19.96	10.386
20.18	7.5381
20.4	0.011923
20.62	9.52549
20.84	4.50321
21.06	4.76275
21.28	5.53561
21.5	4.38698
21.72	9.02718
21.94	13.948
22.16	4.56118
22.38	6.72094
22.6	3.02309
22.82	10.3319
23.04	2.36773
23.26	1.87014
23.48	7.90926
23.7	1.80395
23.92	7.14251
24.14	14.3387
24.36	24.1815
24.58	1.94699
24.8	8.83315
25.02	0.429123
25.24	10.0352
25.46	13.6608
25.68	1.56957
25.9	6.07876
26.12	16.5697
26.34	3.00269
26.56	1.78835
26.78	3.8804
27	5.21339
27.22	3.72294
27.44	16.5202
27.66	13.4252
27.88	17.188
28.1	9.00759
28.32	12.0557
28.54	11.4233
28.76	16.0116
28.98	12.3809
29.2	9.85715
29.42	17.3548
29.64	13.9821
29.86	17.4627
30.08	14.5541
30.3	14.1029
30.52	3.088
30.74	14.548
30.96	7.83949
31.18	1.89629
31.4	8.96067
31.62	10.38
31.84	4.63479
32.06	25.941
32.28	19.0822
32.5	4.3675
32.72	13.6317
32.94	1.09991
33.16	9.30784
33.38	7.54897
33.6	11.81
33.82	10.973
34.04	10.7467
34.26	5.20165
34.48	9.58739
34.7	3.4648
34.92	11.715
35.14	12.9983
35.36	16.7878
35.58	9.01146
35.8	7.27337
36.02	2.47959
36.24	8.54993
36.46	5.44717
36.68	3.13913
36.9	15.0383
37.12	11.0245
37.34	6.26175
37.56	8.17464
37.78	7.1892
38	11.3269
38.22	3.12221
38.44	12.822
38.66	75.3688
38.88	1465.24
39.1	162.78
39.32	20.4362
39.54	0.123379
39.76	7.67666
39.98	7.52578
40.2	11.7971
40.42	3.69753
40.64	7.46898
40.86	9.57954
41.08	2.72562
41.3	15.2561
41.52	12.9401
41.74	9.30913
41.96	8.35945
42.18	14.0058
42.4	18.1662
42.62	12.9288
42.84	6.24177
43.06	2.47422
43.28	3.63661
43.5	6.59257
43.72	12.4372
43.94	1.53185
44.16	8.65883
44.38	8.57109
44.6	5.71744
44.82	13.5118
45.04	7.77686
45.26	6.82174
45.48	4.48909
45.7	10.2823
45.92	4.49525
46.14	6.01882
46.36	9.88145
46.58	6.70718
46.8	7.16197
47.02	11.5118
47.24	19.0712
47.46	14.6297
47.68	9.76444
47.9	11.3162
48.12	3.89256
48.34	7.17947
48.56	6.37584
48.78	12.2689
49	1.46872
49.22	20.6718
49.44	14.9868
49.66	8.01345
49.88	10.9744
50.1	7.16981
50.32	14.2736
50.54	15.4112
50.76	7.50658
50.98	8.92786
51.2	6.96355
51.42	15.716
51.64	9.83518
51.86	4.7897
52.08	7.01634
52.3	5.13007
52.52	8.21992
52.74	4.37191
52.96	7.94202
53.18	11.4742
53.4	10.2678
53.62	7.6281
53.84	9.70494
54.06	8.50802
54.28	5.17357
54.5	6.51312
54.72	4.04389
54.94	12.3071
55.16	10.6291
55.38	5.13059
55.6	18.7615
55.82	26.6852
56.04	181.57
56.26	275.24
56.48	35.1061
56.7	3.86942
56.92	1.61551
57.14	3.15141
57.36	5.78832
57.58	12.5425
57.8	8.46451
58.02	8.23079
58.24	1.29242
58.46	6.72345
58.68	10.2274
58.9	1.41405
59.12	8.67997
59.34	8.85836
59.56	8.0518
59.78	4.41589
60	10.3912
60.22	0.373657
60.44	13.6088
60.66	3.74377
60.88	4.82247
61.1	4.85724
61.32	8.7391
61.54	10.7689
61.76	1.65648
61.98	9.61339
62.2	0.450291
62.42	9.52059
62.64	3.53504
62.86	13.494
63.08	6.45405
63.3	4.31523
63.52	8.35991
63.74	3.43111
63.96	6.49927
64.18	5.80753
64.4	1.73615
64.62	2.76582
64.84	1.27527
65.06	10.6382
65.28	3.60574
65.5	5.7055
65.72	0.867018
65.94	6.79749
66.16	4.76153
66.38	9.57895
66.6	1.34501
66.82	6.70124
67.04	9.13391
67.26	7.26504
67.48	9.31544
67.7	6.39757
67.92	2.18279
68.14	6.4315
68.36	2.31928
68.58	8.65124
68.8	7.29483
69.02	0.940444
69.24	4.65259
69.46	5.09963
69.68	6.77866
69.9	4.54749
70.12	22.6167
70.34	65.5672
70.56	38.4189
70.78	18.2015
71	0.988267
71.22	4.21859
71.44	0.502329
71.66	16.1083
71.88	16.4059
72.1	2.75319
72.32	3.91761
72.54	2.1825
72.76	0.488977
72.98	12.5217
73.2	0.930849
73.42	9.95151
73.64	6.09152
73.86	5.22126
74.08	3.91542
74.3	7.01099
74.52	1.07692
74.74	7.12329
74.96	4.85039
75.18	7.85016
75.4	13.1911
75.62	11.4883
75.84	1.27984
76.06	0.927358
76.28	9.78488
76.5	3.16875
76.72	9.85838
76.94	14.9187
77.16	4.76515
77.38	11.6701
77.6	4.60581
77.82	6.53113
78.04	4.29925
78.26	4.02689
78.48	1.10595
78.7	9.36242
78.92	1.72369
79.14	5.60907
79.36	11.6442
79.58	2.68559
79.8	8.75163
80.02	7.68051
80.24	3.56144
80.46	2.6941
80.68	5.66629
80.9	9.33668
81.12	6.02556
81.34	7.19657
81.56	8.68621
81.78	10.7698
82	3.55483
82.22	3.39286
82.44	1.7486
82.66	4.11923
82.88	1.92268
83.1	11.8776
83.32	21.3753
83.54	18.3082
83.76	10.1952
83.98	10.2531
84.2	4.52049
84.42	12.7618
84.64	6.11278
84.86	4.40198
85.08	7.44878
85.3	5.71476
85.52	5.78153
85.74	3.42028
85.96	3.77437
86.18	5.80702
86.4	5.51546
86.62	7.51372
86.84	3.71244
87.06	2.79499
87.28	10.68
87.5	0.728649
87.72	2.67109
87.94	3.73285
88.16	7.37584
88.38	3.43241
88.6	5.71356
88.82	7.87651
89.04	7.87685
89.26	2.73707
89.48	4.90208
89.7	3.57877
89.92	2.35955
