Measurement: Powder, Xray Data XY Processed
Mineral: Vivianite
Rruff sample: R050596
Ideal chemistry: Fe^2+^_3_(PO_4_)_2_8H_2_O
Locality: Chernomorskiy Quarry, near Kertch City, Crimea Peninsula, Ukraine
Source: Barb Dutrow
Description: Group of dark blue elongated prismatic single crystals in a fossilized clam shell
Diffraction sample description: Powder
Measured chemistry: (Fe^2+^_2.89_Mg_0.08_Mn_0.03_)_Σ=3_(P_1.00_O_4_)_2_·8H_2_O
Cell parameters: a: 10.09577(2) b: 13.34554(4) c: 4.67486(2) alpha: 90. beta: 104.6409(3) gamma: 90. volume: 609.409(2) crystal system: monoclinic
x	intensity
5	0
5.22	14.801
5.44	9.279
5.66	2.222
5.88	19.654
6.1	8.375
6.32	3.808
6.54	11.226
6.76	33.077
6.98	5.558
7.2	10.875
7.42	6.976
7.64	10.486
7.86	14.794
8.08	16.846
8.3	0.026
8.52	0.189
8.74	12.349
8.96	0.363
9.18	0.176
9.4	4.262
9.62	9.816
9.84	20.334
10.06	11.011
10.28	15.923
10.5	5.313
10.72	10.774
10.94	16.289
11.16	25.738
11.38	6.185
11.6	1.04
11.82	0.214
12.04	0.313
12.26	7.04
12.48	0.079
12.7	12.39
12.92	11.095
13.14	24.7
13.36	34.391
13.58	3.799
13.8	1.145
14.02	3.533
14.24	0.134
14.46	0.705
14.68	42.826
14.9	0.293
15.12	5.594
15.34	0.307
15.56	8.251
15.78	12.379
16	14.404
16.22	0.196
16.44	11.38
16.66	7.783
16.88	9.146
17.1	9.647
17.32	0.192
17.54	27.363
17.76	7.973
17.98	17.765
18.2	11.818
18.42	2.612
18.64	16.42
18.86	0.004
19.08	9.209
19.3	0.518
19.52	8.983
19.74	29.342
19.96	3.618
20.18	1.266
20.4	1.436
20.62	4.221
20.84	0.134
21.06	18.373
21.28	0.31
21.5	19.249
21.72	7.463
21.94	17.178
22.16	33.08
22.38	13.638
22.6	4.921
22.82	9.154
23.04	10.129
23.26	14.345
23.48	18.95
23.7	4.763
23.92	0.124
24.14	14.103
24.36	0.084
24.58	0.038
24.8	0.318
25.02	18.315
25.24	2.334
25.46	14.322
25.68	6.877
25.9	10.496
26.12	15.804
26.34	0.269
26.56	5.231
26.78	33.13
27	8.267
27.22	11.781
27.44	13.511
27.66	0.297
27.88	20.222
28.1	17.616
28.32	0.111
28.54	8.173
28.76	0.249
28.98	8.663
29.2	11.792
29.42	10.365
29.64	17.04
29.86	18.004
30.08	30.302
30.3	22.039
30.52	0.094
30.74	13.944
30.96	11.384
31.18	9.604
31.4	20.806
31.62	11.473
31.84	0.27
32.06	16.242
32.28	21.465
32.5	0.094
32.72	0.007
32.94	8.184
33.16	15.579
33.38	37.777
33.6	0.914
33.82	8.799
34.04	26.363
34.26	18.967
34.48	20.605
34.7	11.874
34.92	3.645
35.14	7.878
35.36	2.823
35.58	0.619
35.8	24.805
36.02	10.636
36.24	15.391
36.46	6.998
36.68	32.518
36.9	6.512
37.12	13.451
37.34	0.042
37.56	0.183
37.78	7.274
38	31.786
38.22	9.926
38.44	5.762
38.66	0.909
38.88	13.189
39.1	0.197
39.32	13.987
39.54	14.004
39.76	0.054
39.98	15.009
40.2	2.271
40.42	19.953
40.64	10.552
40.86	2.512
41.08	8.492
41.3	42.842
41.52	30.563
41.74	8.47
41.96	19.982
42.18	5.392
42.4	4.898
42.62	1.481
42.84	15.365
43.06	19.224
43.28	27.497
43.5	5.178
43.72	18.283
43.94	3.904
44.16	16.479
44.38	2.772
44.6	12.204
44.82	23.779
45.04	0.146
45.26	8.429
45.48	15.198
45.7	5.553
45.92	7.698
46.14	14.669
46.36	18.067
46.58	25.764
46.8	0.125
47.02	0.415
47.24	0.073
47.46	21.79
47.68	5.944
47.9	3.215
48.12	0.324
48.34	3.034
48.56	4.674
48.78	0.205
49	0.273
49.22	0.015
49.44	14.949
49.66	0.316
49.88	21.767
50.1	8.533
50.32	21.333
50.54	0.248
50.76	20.919
50.98	13.142
51.2	13.277
51.42	11.238
51.64	0.388
51.86	14.79
52.08	10.894
52.3	15.902
52.52	15.661
52.74	18.474
52.96	2.157
53.18	14.254
53.4	6.376
53.62	0.166
53.84	7
54.06	30.937
54.28	3.845
54.5	3.169
54.72	8.711
54.94	15.466
55.16	0.451
55.38	22.263
55.6	11.649
55.82	9.886
56.04	3.144
56.26	16.595
56.48	0.256
56.7	0.33
56.92	16.294
57.14	17.279
57.36	16.463
57.58	0.105
57.8	12.859
58.02	30.827
58.24	8.668
58.46	8.934
58.68	25.269
58.9	8.404
59.12	0.124
59.34	24.428
59.56	0.154
59.78	16.839
60	1.104
60.22	1.53
60.44	20.093
60.66	0.257
60.88	2.945
61.1	12.926
61.32	0.626
61.54	17.65
61.76	0.035
61.98	17.634
62.2	9.763
62.42	0.29
62.64	20.506
62.86	14.125
63.08	14.79
63.3	17.618
63.52	0.307
63.74	4.17
63.96	0.162
64.18	0.249
64.4	2.979
64.62	17.27
64.84	7.209
65.06	3.721
65.28	21.698
65.5	29.321
65.72	10.96
65.94	9.751
66.16	6.759
66.38	2.505
66.6	4.51
66.82	40.853
67.04	0.282
67.26	0.048
67.48	0.006
67.7	4.312
67.92	0.153
68.14	0.001
68.36	14.536
68.58	8.18
68.8	20.096
69.02	0.155
69.24	3.562
69.46	11.151
69.68	36.677
69.9	0.129
70.12	14.497
70.34	0.906
70.56	9.017
70.78	31.263
71	14.138
71.22	24.156
71.44	12.887
71.66	0.06
71.88	12.201
72.1	5.785
72.32	4.702
72.54	10.32
72.76	10.342
72.98	30.333
73.2	11.396
73.42	19.441
73.64	4.817
73.86	6.54
74.08	12.058
74.3	18.903
74.52	12.119
74.74	12.325
74.96	12.986
75.18	4.992
75.4	10.601
75.62	0.004
75.84	2.735
76.06	1.401
76.28	23.203
76.5	24.859
76.72	11.066
76.94	1.336
77.16	9.019
77.38	0.149
77.6	3.913
77.82	0.061
78.04	29.167
78.26	3.127
78.48	35.391
78.7	28.426
78.92	16.853
79.14	10.614
79.36	18.8
79.58	14.259
79.8	13.879
80.02	17.248
80.24	0.275
80.46	3.057
80.68	14.945
80.9	0.156
81.12	13.252
81.34	8.143
81.56	10.44
81.78	24.502
82	4.441
82.22	30.272
82.44	27.052
82.66	3.033
82.88	13.847
83.1	1.422
83.32	37.532
83.54	24.679
83.76	6.136
83.98	20.771
84.2	14.82
84.42	31.412
84.64	3.155
84.86	14.746
85.08	10.766
85.3	14.388
85.52	5.316
85.74	0.192
85.96	17.667
86.18	16.412
86.4	10.125
86.62	3.925
86.84	5.13
87.06	0.095
87.28	3.582
87.5	0.084
87.72	4.872
87.94	12.066
88.16	5.01
88.38	10.762
88.6	23.706
88.82	0.144
89.04	20.109
89.26	10.5
89.48	11.997
89.7	0.073
89.92	14.396
