Measurement: Powder, Xray Data XY Processed
Mineral: Vlasovite
Rruff sample: R060913
Ideal chemistry: Na_2_Zr^4+^Si_4_O_11_
Locality: Kipawa complex, Quebec, Canada
Source: Royal Ontario Museum
Description: Honey yellow single crystal fragment
Diffraction sample description: Powder
Cell parameters: a: 11.0389(3) b: 10.1003(2) c: 8.5680(3) alpha: 90 beta: 100.325(4) gamma: 90 volume: 939.84(4) crystal system: monoclinic
x	intensity
5	0
5.22	6.30105
5.44	5.48309
5.66	6.98905
5.88	4.81962
6.1	9.76178
6.32	5.18618
6.54	5.29981
6.76	6.55258
6.98	9.5455
7.2	7.75656
7.42	6.94106
7.64	3.19323
7.86	1.54406
8.08	2.5876
8.3	0.080844
8.52	1.01881
8.74	11.9155
8.96	3.95324
9.18	7.80124
9.4	10.8036
9.62	3.72115
9.84	3.64263
10.06	5.58443
10.28	1.3962
10.5	3.64493
10.72	0.357835
10.94	0.070172
11.16	0.820691
11.38	4.28767
11.6	6.2793
11.82	4.90328
12.04	24.8713
12.26	8.86365
12.48	0.28337
12.7	6.75233
12.92	12.55
13.14	1.73327
13.36	4.96212
13.58	3.78737
13.8	9.77517
14.02	5.78409
14.24	0.845415
14.46	6.88206
14.68	4.09769
14.9	34.4049
15.12	9.58047
15.34	0.215701
15.56	6.78186
15.78	10.1774
16	0.584558
16.22	10.1006
16.44	11.4892
16.66	7.93313
16.88	76.1952
17.1	11.9077
17.32	2.65491
17.54	497.13
17.76	26.1435
17.98	9.11942
18.2	15.4567
18.42	4.97185
18.64	4.69659
18.86	5.13195
19.08	8.54766
19.3	6.93909
19.52	1.85557
19.74	0.80828
19.96	4.87137
20.18	10.0945
20.4	6.34469
20.62	12.2803
20.84	8.31473
21.06	79.9297
21.28	0.126955
21.5	10.0916
21.72	1.94818
21.94	11.0088
22.16	6.96746
22.38	2.61657
22.6	8.60277
22.82	7.37569
23.04	88.8939
23.26	9.70312
23.48	1.43882
23.7	3.93837
23.92	2.58685
24.14	4.24256
24.36	131.086
24.58	4.59152
24.8	6.32538
25.02	23.1348
25.24	10.7266
25.46	6.45737
25.68	13.2011
25.9	1.85541
26.12	11.081
26.34	8.81934
26.56	91.5813
26.78	13.4415
27	6.0197
27.22	4.26884
27.44	22.0619
27.66	88.3557
27.88	14.529
28.1	2.39621
28.32	10.4306
28.54	9.05847
28.76	8.88453
28.98	3.70483
29.2	144.18
29.42	9.52641
29.64	8.43261
29.86	45.4142
30.08	17.7444
30.3	142.012
30.52	15.3058
30.74	11.5158
30.96	6.23948
31.18	1.88853
31.4	0.931907
31.62	6.41198
31.84	8.86217
32.06	4.31571
32.28	4.88992
32.5	2.08614
32.72	5.93092
32.94	30.9731
33.16	16.3329
33.38	7.44449
33.6	0.677065
33.82	9.54482
34.04	11.7848
34.26	7.86628
34.48	14.7887
34.7	2.45963
34.92	3.99477
35.14	7.13895
35.36	0.908088
35.58	13.4957
35.8	5.91411
36.02	7.00843
36.24	7.66368
36.46	15.4012
36.68	74.3328
36.9	3.46044
37.12	16.8623
37.34	6.47331
37.56	6.61289
37.78	7.05908
38	30.7637
38.22	9.14361
38.44	0.062296
38.66	4.06609
38.88	3.32572
39.1	7.52485
39.32	12.3863
39.54	1.86046
39.76	8.23561
39.98	2.34495
40.2	6.90489
40.42	11.1776
40.64	4.74882
40.86	6.41573
41.08	6.68214
41.3	7.24817
41.52	52.8168
41.74	35.8334
41.96	11.9366
42.18	12.9545
42.4	7.36412
42.62	1.45356
42.84	1.38967
43.06	0.77998
43.28	20.5164
43.5	18.3764
43.72	5.10236
43.94	5.30963
44.16	6.56893
44.38	4.86426
44.6	8.91327
44.82	2.91603
45.04	4.02926
45.26	0.899443
45.48	2.3001
45.7	12.9627
45.92	10.4558
46.14	1.13583
46.36	4.03103
46.58	24.9238
46.8	27.9691
47.02	21.5087
47.24	6.00514
47.46	11.1597
47.68	3.76345
47.9	1.11273
48.12	4.42459
48.34	4.64644
48.56	4.82566
48.78	10.2893
49	35.3048
49.22	18.3527
49.44	2.89027
49.66	6.76199
49.88	5.67393
50.1	9.405
50.32	4.2662
50.54	4.13287
50.76	2.35608
50.98	2.24757
51.2	29.3228
51.42	24.0175
51.64	16.8113
51.86	4.8949
52.08	3.58732
52.3	0.494623
52.52	9.442
52.74	4.24589
52.96	8.03498
53.18	10.6821
53.4	10.5974
53.62	6.04442
53.84	4.01557
54.06	9.46839
54.28	11.9712
54.5	213.132
54.72	25.1701
54.94	7.24533
55.16	6.79818
55.38	2.7215
55.6	8.47396
55.82	17.5378
56.04	12.6246
56.26	5.61559
56.48	4.33296
56.7	20.7447
56.92	6.86263
57.14	7.07334
57.36	18.2113
57.58	11.2718
57.8	8.32914
58.02	2.52633
58.24	5.71477
58.46	6.03415
58.68	4.39968
58.9	19.5696
59.12	7.82742
59.34	44.8138
59.56	10.7318
59.78	10.6957
60	14.4631
60.22	10.2681
60.44	13.453
60.66	16.7924
60.88	6.82912
61.1	0.470972
61.32	16.4994
61.54	0.389145
61.76	2.52574
61.98	8.35378
62.2	11.0975
62.42	1.16707
62.64	6.17496
62.86	8.88213
63.08	3.44191
63.3	8.12874
63.52	0.18954
63.74	5.68489
63.96	3.69654
64.18	33.5092
64.4	26.5853
64.62	6.7184
64.84	6.50036
65.06	4.4183
65.28	23.8589
65.5	15.2975
65.72	5.58293
65.94	34.8137
66.16	7.41298
66.38	9.62322
66.6	9.00423
66.82	4.18891
67.04	8.17283
67.26	6.18706
67.48	8.25596
67.7	0.08091
67.92	2.75114
68.14	5.62462
68.36	2.65025
68.58	13.9488
68.8	4.87499
69.02	6.06627
69.24	3.10847
69.46	5.28565
69.68	9.6386
69.9	5.85379
70.12	4.16294
70.34	4.52099
70.56	4.55463
70.78	2.38637
71	8.07931
71.22	7.7539
71.44	1.55469
71.66	5.36141
71.88	6.0639
72.1	14.05
72.32	3.88449
72.54	1.68086
72.76	17.3019
72.98	6.55312
73.2	7.75279
73.42	5.95665
73.64	3.22314
73.86	3.39174
74.08	9.71722
74.3	9.07365
74.52	8.09507
74.74	8.16987
74.96	3.54028
75.18	11.5212
75.4	10.5055
75.62	6.32294
75.84	5.27308
76.06	4.13366
76.28	5.94763
76.5	7.82272
76.72	1.53701
76.94	1.57857
77.16	6.36148
77.38	3.04727
77.6	1.23269
77.82	3.30691
78.04	10.2739
78.26	16.1837
78.48	2.28512
78.7	5.41851
78.92	1.55198
79.14	10.438
79.36	15.5635
79.58	5.647
79.8	6.61918
80.02	12.2922
80.24	10.2955
80.46	6.78704
80.68	0.157305
80.9	7.04086
81.12	2.31618
81.34	9.71837
81.56	8.91173
81.78	9.0823
82	4.32291
82.22	7.42085
82.44	5.63945
82.66	4.86502
82.88	4.4821
83.1	6.42983
83.32	9.17655
83.54	1.87542
83.76	3.48742
83.98	9.36408
84.2	6.22994
84.42	9.00291
84.64	4.77107
84.86	4.54435
85.08	2.75438
85.3	7.97501
85.52	2.16947
85.74	8.20492
85.96	7.22175
86.18	3.33777
86.4	3.35811
86.62	2.42153
86.84	5.58335
87.06	3.76145
87.28	7.73055
87.5	2.46207
87.72	0.73118
87.94	12.2228
88.16	3.33643
88.38	2.40624
88.6	6.33159
88.82	8.47425
89.04	1.24397
89.26	1.49905
89.48	6.90356
89.7	4.6639
89.92	5.43707
