Measurement: Powder, Xray Data XY Processed
Mineral: Vonsenite
Rruff sample: R050477
Ideal chemistry: Fe^2+^_2_Fe^3+^O_2_(BO_3_)
Locality: North Hill, Riverside, California, USA
Source: California Institute of Technology
Description: Aggregate of black granules
Diffraction sample description: Powder
Measured chemistry: (Fe^2+^_0.63_Mg_0.37_)_2_Fe^3+^_1.00_BO_5_
Cell parameters: a: 9.3294(5) b: 12.282(1) c: 3.0591(4) alpha: 90 beta: 90 gamma: 90 volume: 350.54(4) crystal system: orthorhombic
x	intensity
5	0
5.22	19.202
5.44	22.7288
5.66	19.205
5.88	18.7156
6.1	0.271828
6.32	32.7717
6.54	24.4823
6.76	31.6793
6.98	18.4259
7.2	21.9918
7.42	43.5934
7.64	21.2313
7.86	16.7715
8.08	23.3367
8.3	31.1125
8.52	6.81754
8.74	25.839
8.96	36.0035
9.18	5.43715
9.4	34.9216
9.62	16.6606
9.84	39.9095
10.06	26.9988
10.28	11.119
10.5	23.882
10.72	59.5438
10.94	16.4332
11.16	30.6521
11.38	30.9441
11.6	28.9185
11.82	13.5962
12.04	21.5352
12.26	19.8789
12.48	25.8127
12.7	35.2505
12.92	20.8837
13.14	14.1348
13.36	5.43512
13.58	28.5143
13.8	31.6791
14.02	33.3222
14.24	6.50207
14.46	37.3304
14.68	0.449036
14.9	27.0263
15.12	51.6051
15.34	13.9404
15.56	22.1932
15.78	45.2236
16	28.077
16.22	2.63049
16.44	20.9698
16.66	27.6541
16.88	30.2107
17.1	21.445
17.32	104.262
17.54	38.9013
17.76	9.10965
17.98	42.3442
18.2	20.2592
18.42	31.6612
18.64	32.0778
18.86	25.8161
19.08	33.2884
19.3	26.0981
19.52	17.7022
19.74	38.7013
19.96	16.357
20.18	28.6923
20.4	37.2645
20.62	10.9708
20.84	48.5156
21.06	38.1868
21.28	28.0421
21.5	12.6021
21.72	20.7616
21.94	42.7581
22.16	32.1335
22.38	28.3571
22.6	3.42653
22.82	18.5627
23.04	24.391
23.26	27.3123
23.48	42.5293
23.7	22.6895
23.92	27.9853
24.14	29.0705
24.36	23.9499
24.58	39.5173
24.8	26.7557
25.02	9.55365
25.24	18.6775
25.46	33.9029
25.68	19.7015
25.9	26.059
26.12	42.3526
26.34	13.2389
26.56	37.5134
26.78	18.1229
27	21.8899
27.22	18.3083
27.44	9.86272
27.66	45.3248
27.88	22.2909
28.1	27.4459
28.32	1.98138
28.54	38.0474
28.76	31.3544
28.98	23.2543
29.2	53.2371
29.42	49.1772
29.64	25.2938
29.86	32.746
30.08	15.4734
30.3	2.54991
30.52	40.5973
30.74	53.6628
30.96	27.1552
31.18	15.9924
31.4	19.4037
31.62	71.9565
31.84	3.04025
32.06	38.8772
32.28	63.2181
32.5	33.5163
32.72	23.9759
32.94	42.7628
33.16	2.81023
33.38	28.7558
33.6	2.65884
33.82	13.6179
34.04	8.54854
34.26	1.94574
34.48	8.7721
34.7	15.7422
34.92	108.109
35.14	125.674
35.36	37.7771
35.58	1.79416
35.8	7.92983
36.02	36.8592
36.24	48.268
36.46	1.41925
36.68	18.9836
36.9	18.5785
37.12	22.449
37.34	26.6066
37.56	12.2751
37.78	36.1435
38	8.53244
38.22	19.0914
38.44	15.5592
38.66	39.5215
38.88	11.5337
39.1	29.2432
39.32	31.385
39.54	24.6553
39.76	28.1054
39.98	19.8845
40.2	40.6625
40.42	10.3599
40.64	7.61778
40.86	25.8077
41.08	33.933
41.3	39.7019
41.52	50.1213
41.74	34.6952
41.96	3.608
42.18	10.6803
42.4	28.6385
42.62	35.3787
42.84	9.15462
43.06	23.3291
43.28	13.7683
43.5	47.4713
43.72	6.12222
43.94	42.0684
44.16	26.3754
44.38	17.8356
44.6	16.0659
44.82	18.5313
45.04	6.16148
45.26	35.4288
45.48	49.9599
45.7	7.2879
45.92	29.1356
46.14	8.83121
46.36	34.9374
46.58	12.0467
46.8	11.1598
47.02	19.043
47.24	35.6943
47.46	16.4771
47.68	40.9059
47.9	20.0316
48.12	13.1683
48.34	27.506
48.56	49.2292
48.78	6.62816
49	27.3364
49.22	22.1572
49.44	22.2752
49.66	33.8265
49.88	13.6128
50.1	47.6334
50.32	18.8439
50.54	30.966
50.76	22.3219
50.98	10.4325
51.2	7.13983
51.42	20.7707
51.64	43.8132
51.86	24.6141
52.08	45.5478
52.3	36.754
52.52	4.36661
52.74	33.2523
52.96	19.8805
53.18	24.7702
53.4	20.4524
53.62	55.2476
53.84	1.02074
54.06	4.28302
54.28	53.0253
54.5	20.0206
54.72	33.0817
54.94	16.0262
55.16	31.5588
55.38	12.6276
55.6	30.7247
55.82	23.142
56.04	3.42168
56.26	29.5717
56.48	4.06104
56.7	30.2123
56.92	52.5369
57.14	42.34
57.36	5.55742
57.58	8.30594
57.8	23.9054
58.02	42.2576
58.24	61.8736
58.46	25.283
58.68	34.3326
58.9	8.49889
59.12	9.42319
59.34	19.4629
59.56	1.65137
59.78	7.40016
60	27.9133
60.22	3.65637
60.44	36.032
60.66	38.0506
60.88	18.427
61.1	35.5423
61.32	18.8954
61.54	45.6974
61.76	38.5258
61.98	32.037
62.2	8.5463
62.42	19.2368
62.64	20.0427
62.86	27.5778
63.08	29.2426
63.3	23.108
63.52	4.35927
63.74	40.4114
63.96	23.3946
64.18	19.9455
64.4	15.4908
64.62	14.5327
64.84	30.4852
65.06	6.77628
65.28	33.6278
65.5	28.1338
65.72	30.2517
65.94	27.5725
66.16	37.1073
66.38	26.341
66.6	11.7277
66.82	9.90219
67.04	32.5332
67.26	32.4956
67.48	43.131
67.7	37.9269
67.92	35.2335
68.14	35.5162
68.36	18.5059
68.58	14.7591
68.8	39.2837
69.02	33.9909
69.24	16.1256
69.46	17.5972
69.68	9.94362
69.9	22.2481
70.12	11.684
70.34	34.1683
70.56	1.56511
70.78	18.9456
71	19.3127
71.22	40.5883
71.44	46.3444
71.66	42.6289
71.88	52.5022
72.1	8.98438
72.32	19.3144
72.54	10.5561
72.76	18.5297
72.98	8.92293
73.2	20.9523
73.42	33.6957
73.64	45.2488
73.86	1.98088
74.08	40.878
74.3	52.9781
74.52	25.1328
74.74	23.9818
74.96	27.4135
75.18	10.5691
75.4	37.0129
75.62	29.7485
75.84	28.0334
76.06	29.8958
76.28	3.51161
76.5	16.4447
76.72	7.71132
76.94	42.586
77.16	15.1263
77.38	12.2941
77.6	36.0488
77.82	40.1348
78.04	4.99174
78.26	19.4692
78.48	15.2788
78.7	10.9723
78.92	12.6744
79.14	3.69344
79.36	22.5522
79.58	3.62537
79.8	8.33302
80.02	27.7099
80.24	26.3321
80.46	23.1182
80.68	20.0536
80.9	10.4079
81.12	39.7755
81.34	23.0157
81.56	16.0205
81.78	24.1109
82	40.1838
82.22	52.5249
82.44	25.5038
82.66	35.8761
82.88	36.9732
83.1	16.1789
83.32	31.6744
83.54	28.1728
83.76	10.0639
83.98	21.9779
84.2	25.5091
84.42	29.6134
84.64	2.6402
84.86	33.8404
85.08	15.3861
85.3	0.06842
85.52	4.76973
85.74	23.1737
85.96	51.0032
86.18	13.0588
86.4	44.4764
86.62	26.5626
86.84	14.6287
87.06	5.57604
87.28	14.6416
87.5	9.51765
87.72	18.1615
87.94	33.6444
88.16	21.3702
88.38	3.11267
88.6	18.4678
88.82	11.8085
89.04	18.2761
89.26	25.9292
89.48	29.0828
89.7	38.0032
89.92	32.695
