Measurement: Powder, Xray Data XY Processed
Mineral: Vonsenite
Rruff sample: R050221
Ideal chemistry: Fe^2+^_2_Fe^3+^O_2_(BO_3_)
Locality: Monchi mine, Burguillos del Cerro, Badajoz, Extremadura, Spain
Source: Marcus Origlieri
Description: Mass of thin bladed black crystals
Diffraction sample description: Powder
Measured chemistry: (Fe^2+^_1.96_Mg_0.03_Mn_0.01_)_Σ=2_(Fe^3+^_0.98_Al_0.02_)_Σ=1_BO_5_
Cell parameters: a: 9.4686(9) b: 12.2986(8) c: 3.0726(5) alpha: 90 beta: 90 gamma: 90 volume: 357.80(4) crystal system: orthorhombic
x	intensity
5	0
5.22	7.46913
5.44	14.2063
5.66	26.1973
5.88	19.1358
6.1	1.38732
6.32	18.2914
6.54	5.41921
6.76	10.1239
6.98	15.2689
7.2	13.7027
7.42	16.6212
7.64	8.53963
7.86	18.4161
8.08	23.4288
8.3	12.1281
8.52	14.5739
8.74	14.2296
8.96	1.32861
9.18	7.24882
9.4	3.07938
9.62	2.74654
9.84	11.8607
10.06	15.8852
10.28	20.9215
10.5	22.4721
10.72	7.53099
10.94	4.17812
11.16	22.8009
11.38	12.9413
11.6	13.5199
11.82	18.0397
12.04	30.7922
12.26	5.80843
12.48	13.233
12.7	13.0469
12.92	11.3132
13.14	22.8855
13.36	1.15865
13.58	31.2772
13.8	19.7747
14.02	12.7263
14.24	39.6349
14.46	18.2768
14.68	33.1975
14.9	14.2044
15.12	12.9594
15.34	4.99046
15.56	7.11215
15.78	3.92639
16	19.1592
16.22	15.0701
16.44	2.04063
16.66	23.3622
16.88	16.6547
17.1	17.3034
17.32	133.326
17.54	18.7588
17.76	12.0375
17.98	8.77433
18.2	8.37201
18.42	3.98149
18.64	14.8888
18.86	34.9532
19.08	34.4622
19.3	7.49785
19.52	3.81101
19.74	18.3726
19.96	21.3395
20.18	8.4349
20.4	3.08546
20.62	21.3928
20.84	18.4311
21.06	12.048
21.28	10.9537
21.5	27.978
21.72	23.2365
21.94	8.40204
22.16	3.58359
22.38	8.60558
22.6	20.534
22.82	16.402
23.04	2.59541
23.26	2.48583
23.48	4.354
23.7	26.2783
23.92	19.165
24.14	24.0971
24.36	20.8421
24.58	4.47836
24.8	28.251
25.02	13.8135
25.24	20.9072
25.46	0.775459
25.68	26.2995
25.9	6.63751
26.12	10.6606
26.34	14.6075
26.56	22.108
26.78	39.0949
27	15.9383
27.22	1.54807
27.44	33.2948
27.66	3.02007
27.88	4.25979
28.1	20.8914
28.32	7.00931
28.54	13.1943
28.76	16.5291
28.98	4.19718
29.2	19.5299
29.42	18.4434
29.64	21.2038
29.86	21.034
30.08	25.7253
30.3	20.5761
30.52	4.88258
30.74	32.0329
30.96	1.96027
31.18	20.1971
31.4	0.397476
31.62	2.744
31.84	28.9025
32.06	21.9641
32.28	13.9139
32.5	19.3939
32.72	0.53949
32.94	5.31177
33.16	16.5365
33.38	16.691
33.6	9.19418
33.82	23.7382
34.04	17.1118
34.26	14.5083
34.48	10.9148
34.7	9.52303
34.92	289.113
35.14	45.686
35.36	9.32105
35.58	9.10771
35.8	3.42421
36.02	30.1962
36.24	10.5893
36.46	26.869
36.68	3.3138
36.9	8.31998
37.12	10.2409
37.34	0.891632
37.56	4.12538
37.78	17.199
38	41.7274
38.22	92.6735
38.44	33.3315
38.66	20.4294
38.88	11.0669
39.1	27.4764
39.32	17.2008
39.54	11.9931
39.76	7.87163
39.98	20.3985
40.2	15.4669
40.42	26.1147
40.64	25.6499
40.86	18.558
41.08	25.2095
41.3	3.25813
41.52	62.7511
41.74	30.3288
41.96	23.8667
42.18	10.5191
42.4	18.9243
42.62	19.8262
42.84	31.8006
43.06	1.31908
43.28	24.811
43.5	21.9342
43.72	21.6678
43.94	1.23323
44.16	21.4337
44.38	19.8649
44.6	5.82144
44.82	5.64785
45.04	49.1884
45.26	35.9435
45.48	14.1319
45.7	17.3844
45.92	21.0727
46.14	14.2731
46.36	31.0017
46.58	12.4548
46.8	0.073944
47.02	57.5425
47.24	23.2952
47.46	1.91488
47.68	24.7621
47.9	25.4244
48.12	8.96623
48.34	18.4308
48.56	20.166
48.78	36.7318
49	21.0761
49.22	26.8904
49.44	26.3032
49.66	7.64217
49.88	14.1659
50.1	4.25601
50.32	24.5872
50.54	15.6168
50.76	19.0225
50.98	15.1753
51.2	32.221
51.42	25.6288
51.64	35.8579
51.86	7.16132
52.08	38.605
52.3	40.6434
52.52	15.269
52.74	11.4674
52.96	2.45081
53.18	13.196
53.4	24.0101
53.62	25.1622
53.84	19.0461
54.06	24.82
54.28	11.6976
54.5	29.097
54.72	16.4337
54.94	6.75674
55.16	35.0112
55.38	14.2284
55.6	20.6066
55.82	20.7195
56.04	11.2961
56.26	13.0086
56.48	29.5354
56.7	37.9907
56.92	26.7447
57.14	14.5673
57.36	18.7024
57.58	2.09692
57.8	48.0466
58.02	18.9097
58.24	23.3646
58.46	35.6144
58.68	26.9469
58.9	45.2687
59.12	28.1434
59.34	33.367
59.56	34.341
59.78	13.2428
60	29.4078
60.22	39.6496
60.44	32.6193
60.66	17.6221
60.88	41.2861
61.1	18.7282
61.32	33.3162
61.54	30.0038
61.76	23.7704
61.98	32.8366
62.2	30.697
62.42	11.1181
62.64	10.7745
62.86	3.55
63.08	15.987
63.3	0.671951
63.52	21.935
63.74	22.6058
63.96	18.5626
64.18	3.9394
64.4	25.1334
64.62	11.9527
64.84	14.2301
65.06	4.14156
65.28	13.9613
65.5	43.1129
65.72	28.4113
65.94	21.5309
66.16	4.43351
66.38	34.9466
66.6	5.35211
66.82	20.5659
67.04	13.6835
67.26	13.0745
67.48	46.8269
67.7	4.26054
67.92	17.5456
68.14	11.6532
68.36	34.4684
68.58	11.3373
68.8	10.7709
69.02	20.1782
69.24	16.7292
69.46	8.25675
69.68	27.322
69.9	18.5904
70.12	20.7013
70.34	22.6669
70.56	30.1233
70.78	1.04645
71	0.724213
71.22	14.901
71.44	33.3692
71.66	6.00513
71.88	13.3254
72.1	43.8239
72.32	1.7805
72.54	5.21462
72.76	3.81952
72.98	1.45651
73.2	40.9201
73.42	29.8768
73.64	22.3561
73.86	37.1375
74.08	28.8937
74.3	3.58006
74.52	24.2067
74.74	49.306
74.96	14.3966
75.18	29.0239
75.4	7.23869
75.62	9.36142
75.84	11.0933
76.06	29.1597
76.28	38.2472
76.5	20.5442
76.72	33.2642
76.94	27.2787
77.16	21.4297
77.38	22.6935
77.6	22.1065
77.82	27.8414
78.04	26.9364
78.26	1.82083
78.48	30.5542
78.7	30.3271
78.92	38.241
79.14	15.0405
79.36	4.5253
79.58	4.09232
79.8	33.2059
80.02	28.9409
80.24	38.6321
80.46	23.0746
80.68	14.8195
80.9	21.3009
81.12	20.4689
81.34	21.0846
81.56	25.0027
81.78	20.7344
82	0.036926
82.22	26.8618
82.44	28.126
82.66	20.3223
82.88	14.6316
83.1	14.1219
83.32	43.4168
83.54	31.7299
83.76	22.4965
83.98	24.0863
84.2	23.5694
84.42	5.18942
84.64	25.0312
84.86	17.2046
85.08	19.7049
85.3	14.0969
85.52	28.3351
85.74	30.8976
85.96	20.1548
86.18	0.319214
86.4	37.391
86.62	18.4417
86.84	13.3977
87.06	15.6194
87.28	3.12271
87.5	11.6236
87.72	24.3554
87.94	14.5786
88.16	14.9004
88.38	20.7187
88.6	14.59
88.82	21.4562
89.04	27.1671
89.26	22.2611
89.48	31.8136
89.7	14.0252
89.92	26.4531
