Measurement: Powder, Xray Data XY Processed
Mineral: Wadeite
Rruff sample: R060036
Ideal chemistry: K_2_Zr^4+^Si_3_O_9_
Locality: Walgidee, Western Australia, Austrailia
Source: University of Arizona Mineral Museum
Description: Tan colored water worn prismatic crystals, associated with fluorapatite
Diffraction sample description: Single crystal, powder profile is calculated
Measured chemistry: K_2.00_Zr_1.00_(Si_2.95_Ti_0.05_)_Î£=3_O_9_
Cell parameters: a: 6.9211(18) b: 6.9211(18) c: 10.209(4) alpha: 90 beta: 90 gamma: 120 volume: 423.50(16) crystal system: hexagonal
x	intensity
5	0
5.22	0
5.44	0
5.66	0
5.88	0
6.1	0
6.32	0
6.54	0
6.76	0
6.98	0
7.2	0
7.42	0
7.64	0
7.86	0
8.08	0
8.3	0
8.52	0
8.74	0
8.96	0
9.18	0
9.4	0
9.62	0
9.84	0
10.06	0
10.28	0
10.5	0
10.72	0
10.94	0
11.16	0
11.38	0
11.6	0
11.82	0
12.04	0
12.26	0
12.48	0
12.7	0
12.92	0
13.14	0
13.36	0
13.58	0
13.8	0
14.02	0
14.24	0
14.46	0
14.68	0.294
14.9	0.05
15.12	0
15.34	0
15.56	0
15.78	0
16	0
16.22	0
16.44	0
16.66	0
16.88	0
17.1	4.34
17.32	0.272
17.54	0
17.76	0
17.98	0
18.2	0
18.42	0
18.64	0
18.86	0
19.08	0
19.3	0
19.52	0
19.74	0
19.96	0
20.18	0
20.4	0
20.62	0
20.84	0
21.06	0
21.28	0
21.5	0
21.72	0
21.94	0
22.16	0
22.38	0
22.6	0
22.82	15.821
23.04	0.006
23.26	0
23.48	0
23.7	0
23.92	0
24.14	0
24.36	0
24.58	0
24.8	0
25.02	0
25.24	0
25.46	0
25.68	9.622
25.9	0.009
26.12	0
26.34	0
26.56	0
26.78	0
27	0
27.22	15.244
27.44	0
27.66	0
27.88	0
28.1	0
28.32	0
28.54	0
28.76	0
28.98	0
29.2	0
29.42	0
29.64	0
29.86	0.382
30.08	0.31
30.3	5.024
30.52	0
30.74	0
30.96	0.021
31.18	85.829
31.4	0.018
31.62	0
31.84	0
32.06	0
32.28	0
32.5	0
32.72	0
32.94	0
33.16	0
33.38	0
33.6	0
33.82	0
34.04	0
34.26	0
34.48	0
34.7	5.988
34.92	0
35.14	6.289
35.36	0
35.58	0
35.8	0
36.02	0
36.24	0
36.46	0
36.68	0
36.9	0.001
37.12	0.745
37.34	0
37.56	0
37.78	0
38	0
38.22	0.107
38.44	0.458
38.66	0
38.88	0
39.1	0
39.32	0
39.54	0
39.76	4.958
39.98	0.015
40.2	0.058
40.42	0
40.64	0.007
40.86	6.127
41.08	0
41.3	0
41.52	0
41.74	0
41.96	0
42.18	0
42.4	0
42.62	0
42.84	0
43.06	0
43.28	0
43.5	0
43.72	1.733
43.94	0.03
44.16	4.58
44.38	0
44.6	0
44.82	0
45.04	0
45.26	0.221
45.48	7.099
45.7	0
45.92	0
46.14	0
46.36	0.005
46.58	0.005
46.8	3.656
47.02	0.087
47.24	0
47.46	0
47.68	0
47.9	0
48.12	0.035
48.34	1.298
48.56	0
48.78	0.005
49	4.383
49.22	0
49.44	0
49.66	0
49.88	0
50.1	0
50.32	0
50.54	0
50.76	0
50.98	0
51.2	0
51.42	0
51.64	0
51.86	0
52.08	0.008
52.3	0
52.52	0
52.74	0.004
52.96	1.162
53.18	0.033
53.4	0
53.62	0.005
53.84	0.78
54.06	15.496
54.28	6.181
54.5	1.899
54.72	0
54.94	0
55.16	1.69
55.38	2.097
55.6	0
55.82	0
56.04	4.79
56.26	3.942
56.48	0
56.7	0
56.92	0
57.14	0
57.36	0
57.58	0
57.8	0
58.02	0
58.24	0.181
58.46	1.775
58.68	0.591
58.9	0.008
59.12	0
59.34	0
59.56	0
59.78	0
60	0.002
60.22	0
60.44	0
60.66	0.594
60.88	0.007
61.1	1.564
61.32	0.033
61.54	0
61.76	0.012
61.98	0.221
62.2	0.598
62.42	0
62.64	0.055
62.86	0.557
63.08	0
63.3	0
63.52	0
63.74	0
63.96	0
64.18	0
64.4	0
64.62	0
64.84	1.299
65.06	4.405
65.28	2.145
65.5	0.03
65.72	0.001
65.94	0.13
66.16	0.004
66.38	0
66.6	0
66.82	0
67.04	0.034
67.26	0.156
67.48	0.001
67.7	0
67.92	0
68.14	0.087
68.36	0.919
68.58	0.27
68.8	0.165
69.02	1.622
69.24	0.255
69.46	0
69.68	0
69.9	0.465
70.12	0.379
70.34	0
70.56	0
70.78	0.002
71	0.471
71.22	0.084
71.44	0.002
71.66	0.001
71.88	0.045
72.1	1.846
72.32	1.482
72.54	0
72.76	0.027
72.98	0.67
73.2	0.315
73.42	0.702
73.64	0.286
73.86	0
74.08	0
74.3	2.961
74.52	1.567
74.74	0.005
74.96	0.84
75.18	0.379
75.4	0
75.62	0
75.84	0
76.06	0.001
76.28	0.625
76.5	0.36
76.72	0
76.94	0
77.16	0
77.38	0
77.6	0
77.82	0.56
78.04	0.257
78.26	0.331
78.48	0.188
78.7	0.001
78.92	0.041
79.14	0.073
79.36	0.057
79.58	0.001
79.8	0
80.02	0.149
80.24	0.121
80.46	0
80.68	0.655
80.9	0.155
81.12	0.011
81.34	0
81.56	0
81.78	0
82	1.007
82.22	0.394
82.44	0
82.66	0.282
82.88	3.741
83.1	1.631
83.32	0
83.54	0
83.76	0.167
83.98	0.028
84.2	0
84.42	0
84.64	0
84.86	0.046
85.08	0.024
85.3	0.125
85.52	0
85.74	0.074
85.96	0.106
86.18	0.061
86.4	1.153
86.62	0.181
86.84	0.027
87.06	0
87.28	0
87.5	0.072
87.72	3.313
87.94	1.208
88.16	0
88.38	0.025
88.6	0.066
88.82	0.076
89.04	0.132
89.26	0.979
89.48	0.103
89.7	0.07
89.92	0.029
