Measurement: Powder, Xray Data XY Processed
Mineral: Wagnerite
Rruff sample: R050519
Ideal chemistry: Mg_2_PO_4_F
Locality: Kjorrestad, near Bamle, Norway
Source: University of Arizona Mineral Museum
Description: Pale yellow lamellar fragments, associated with isokite, R070526.
Diffraction sample description: Single crystal, powder profile is calculated
Measured chemistry: Mg_2.00_(P_1.00_O_4_)(F_0.80_(OH)_0.20_)_Σ=1_ ; = gray phase, and the light phase is isokite: Ca_1.00_Mg_1.00_(P_1.00_O_4_)(F_0.80_(OH)_0.20_)_Σ=1_
Cell parameters: a: 9.631(1) b: 12.667(2) c: 11.922(1) alpha: 90 beta: 108.270(6) gamma: 90 volume: 1381.2(3) crystal system: monoclinic
x	intensity
5	0
5.22	0
5.44	0
5.66	0
5.88	0
6.1	0
6.32	0
6.54	0
6.76	0
6.98	0
7.2	0
7.42	0
7.64	0
7.86	0
8.08	0
8.3	0
8.52	0
8.74	0
8.96	0
9.18	0
9.4	0
9.62	0.005
9.84	0
10.06	0
10.28	0
10.5	0.01
10.72	0
10.94	0
11.16	0
11.38	0
11.6	0
11.82	0
12.04	0
12.26	0
12.48	0.019
12.7	0
12.92	0
13.14	0
13.36	0
13.58	0
13.8	0
14.02	0
14.24	0
14.46	0
14.68	0
14.9	0
15.12	0
15.34	0
15.56	3.398
15.78	0.002
16	2.905
16.22	0
16.44	0
16.66	0
16.88	0.001
17.1	1.07
17.32	0.001
17.54	0
17.76	0
17.98	0
18.2	0
18.42	0
18.64	0
18.86	0
19.08	0
19.3	0.088
19.52	0.002
19.74	0.027
19.96	0.012
20.18	0
20.4	0
20.62	0.359
20.84	0.199
21.06	0.964
21.28	0
21.5	0
21.72	0
21.94	0.226
22.16	0
22.38	0.045
22.6	0
22.82	0
23.04	0
23.26	4.2
23.48	0.1
23.7	0
23.92	0.001
24.14	0.009
24.36	0
24.58	0.835
24.8	0
25.02	0
25.24	1.123
25.46	0.361
25.68	0
25.9	0
26.12	0
26.34	0.651
26.56	0.003
26.78	0
27	0.691
27.22	2.533
27.44	9.932
27.66	0
27.88	0
28.1	0.466
28.32	0
28.54	3.493
28.76	2.109
28.98	0.008
29.2	0.045
29.42	0.329
29.64	0.055
29.86	0.089
30.08	62.487
30.3	0
30.52	0
30.74	0.072
30.96	0.019
31.18	0
31.4	69.311
31.62	1.58
31.84	8.565
32.06	0.056
32.28	3.102
32.5	14.603
32.72	0.04
32.94	0
33.16	9.03
33.38	0.009
33.6	0.001
33.82	0
34.04	0
34.26	0.001
34.48	0.919
34.7	0
34.92	0
35.14	0.988
35.36	0.256
35.58	0.015
35.8	0.769
36.02	0.051
36.24	10.057
36.46	0.027
36.68	0.061
36.9	0.074
37.12	0.001
37.34	0.064
37.56	1.801
37.78	0
38	0.841
38.22	1.533
38.44	0.049
38.66	0.059
38.88	0.235
39.1	0.226
39.32	3.15
39.54	0.005
39.76	0.527
39.98	1.432
40.2	5.167
40.42	0.475
40.64	3.901
40.86	0.333
41.08	3.546
41.3	0.5
41.52	0.063
41.74	0.859
41.96	0.427
42.18	3.206
42.4	1.34
42.62	2.798
42.84	0.66
43.06	0.018
43.28	1.196
43.5	2.648
43.72	4.503
43.94	8.173
44.16	0.266
44.38	0
44.6	0.015
44.82	0.122
45.04	0.114
45.26	0.087
45.48	0.021
45.7	3.318
45.92	2.379
46.14	0.014
46.36	1.026
46.58	0.033
46.8	0.012
47.02	0.572
47.24	5.767
47.46	2.793
47.68	0.567
47.9	0.984
48.12	9.661
48.34	0.035
48.56	0.111
48.78	0.086
49	0.924
49.22	0.854
49.44	0.4
49.66	0
49.88	0.001
50.1	0.452
50.32	1.319
50.54	0.344
50.76	2.08
50.98	2.746
51.2	0.033
51.42	0.818
51.64	1.579
51.86	0.237
52.08	1.157
52.3	3.667
52.52	0.721
52.74	1.746
52.96	2.977
53.18	4.777
53.4	0.114
53.62	0.354
53.84	0.002
54.06	0.004
54.28	0.081
54.5	0.198
54.72	0.408
54.94	4.704
55.16	0.042
55.38	0
55.6	0.128
55.82	0.692
56.04	0.417
56.26	0.023
56.48	3.183
56.7	0.567
56.92	0.185
57.14	0.211
57.36	0.526
57.58	0.048
57.8	0.143
58.02	0.317
58.24	8.807
58.46	2.844
58.68	1.524
58.9	1.674
59.12	0.551
59.34	1.801
59.56	1.033
59.78	0.677
60	5.937
60.22	0.666
60.44	0.503
60.66	2.49
60.88	0.129
61.1	0.517
61.32	0.157
61.54	2.094
61.76	0.239
61.98	0.878
62.2	3.549
62.42	3.974
62.64	1.488
62.86	0.146
63.08	0.821
63.3	0.078
63.52	3.671
63.74	1.242
63.96	0.08
64.18	0.066
64.4	0.781
64.62	0.528
64.84	2.029
65.06	0.826
65.28	0.885
65.5	3.343
65.72	2.56
65.94	2.882
66.16	2.438
66.38	0.63
66.6	2.67
66.82	3.555
67.04	1.367
67.26	0.219
67.48	0.923
67.7	2.788
67.92	2.821
68.14	1.63
68.36	0.555
68.58	0.295
68.8	1.688
69.02	0.33
69.24	0.046
69.46	1.431
69.68	0.811
69.9	0.097
70.12	1.681
70.34	1.114
70.56	0.194
70.78	0.03
71	0.768
71.22	0.325
71.44	0.17
71.66	0.106
71.88	2.835
72.1	1.708
72.32	0.205
72.54	0.374
72.76	0.302
72.98	0.242
73.2	0.073
73.42	0.03
73.64	0.117
73.86	1.694
74.08	0.955
74.3	1.266
74.52	0.815
74.74	0.834
74.96	0.527
75.18	0.323
75.4	0.334
75.62	0.273
75.84	0.134
76.06	0.05
76.28	0.026
76.5	0.048
76.72	1.01
76.94	0.91
77.16	0.201
77.38	0.03
77.6	0.053
77.82	1.061
78.04	0.75
78.26	0.25
78.48	0.145
78.7	4.054
78.92	2.009
79.14	0.068
79.36	0.127
79.58	0.213
79.8	0.152
80.02	0.517
80.24	0.155
80.46	0.895
80.68	0.461
80.9	0.038
81.12	0.635
81.34	0.194
81.56	1.004
81.78	0.414
82	0.193
82.22	0.478
82.44	0.089
82.66	0.335
82.88	0.311
83.1	1.126
83.32	1.226
83.54	0.615
83.76	0.265
83.98	0.743
84.2	0.314
84.42	0.028
84.64	2.063
84.86	2.197
85.08	0.198
85.3	1.274
85.52	0.374
85.74	0.78
85.96	0.536
86.18	0.17
86.4	0.033
86.62	0.036
86.84	0.429
87.06	0.212
87.28	0.832
87.5	0.584
87.72	1.136
87.94	0.23
88.16	0.365
88.38	0.039
88.6	0.024
88.82	0.294
89.04	0.567
89.26	0.749
89.48	0.226
89.7	0.21
89.92	0.059
