Measurement: Powder, Xray Data XY Processed
Mineral: Wardite
Rruff sample: R050643
Ideal chemistry: NaAl_3_(PO_4_)_2_(OH)_4_2H_2_O
Locality: Big Fish River, Yukon Territory, Canada
Source: Rock Currier
Description: Tan bipyramidal pseudo-octahedral crystals
Diffraction sample description: Powder
Measured chemistry: (Na_0.93_[box]_0.05_Ca_0.02_)_Σ=1_(Al_2.97_Fe^3+^_0.03_)_Σ=3_(P_1.00_O_4_)_2_((OH)_3.88_F_0.12_)_Σ=4_·2H_2_O
Cell parameters: a: 7.0582(2) b: 7.0582(2) c: 19.0678(6) alpha: 90. beta: 90. gamma: 90. volume: 949.94(6) crystal system: tetragonal
x	intensity
5	0
5.22	11.26
5.44	19.086
5.66	17.789
5.88	14.69
6.1	15.784
6.32	7.408
6.54	14.569
6.76	14.915
6.98	15.371
7.2	8.946
7.42	17.368
7.64	10.961
7.86	3.893
8.08	9.571
8.3	0.659
8.52	5.711
8.74	6.115
8.96	3.533
9.18	0.028
9.4	9.533
9.62	13.334
9.84	16.023
10.06	4.617
10.28	2.379
10.5	7.421
10.72	15.234
10.94	0.181
11.16	7.024
11.38	8.165
11.6	4.333
11.82	12.953
12.04	9.901
12.26	7.765
12.48	4.633
12.7	5.404
12.92	3.482
13.14	6.547
13.36	39.679
13.58	6.874
13.8	14.874
14.02	9.717
14.24	4.933
14.46	0.919
14.68	5.032
14.9	10.049
15.12	3.415
15.34	6.662
15.56	8.98
15.78	0.882
16	4.003
16.22	5.715
16.44	6.066
16.66	2.339
16.88	7.295
17.1	2.073
17.32	0.431
17.54	0.494
17.76	125.886
17.98	7.333
18.2	8.161
18.42	167.906
18.64	564.069
18.86	736.916
19.08	11.22
19.3	2.711
19.52	2.441
19.74	12.094
19.96	3.906
20.18	18.661
20.4	3.414
20.62	9.842
20.84	1.981
21.06	6.127
21.28	5.257
21.5	1.748
21.72	9.283
21.94	14.11
22.16	3.022
22.38	8.884
22.6	39.666
22.82	8.551
23.04	6.029
23.26	6.501
23.48	1.481
23.7	5.592
23.92	1.852
24.14	2.005
24.36	8.058
24.58	5.979
24.8	2.014
25.02	1.977
25.24	10.494
25.46	9.028
25.68	70.088
25.9	56.998
26.12	23.098
26.34	5.584
26.56	8.729
26.78	3.648
27	10.894
27.22	4.712
27.44	3.242
27.66	5.364
27.88	4.613
28.1	3.795
28.32	18.131
28.54	17.461
28.76	143.424
28.98	539.81
29.2	9.966
29.42	47.081
29.64	30.449
29.86	366.646
30.08	13.101
30.3	3.592
30.52	3.02
30.74	10.453
30.96	3.987
31.18	12.636
31.4	4.017
31.62	115.078
31.84	14.069
32.06	6.275
32.28	2.433
32.5	6.406
32.72	0.513
32.94	1.561
33.16	7.288
33.38	12.963
33.6	5.533
33.82	12.183
34.04	26.3
34.26	6.479
34.48	5.401
34.7	292.465
34.92	10.511
35.14	4.451
35.36	61.877
35.58	3.309
35.8	0.745
36.02	14.311
36.24	6.561
36.46	4.428
36.68	0.376
36.9	9.796
37.12	2.781
37.34	14.01
37.56	6.958
37.78	116.709
38	10.015
38.22	15.75
38.44	7.511
38.66	21.611
38.88	56.351
39.1	2.569
39.32	7.421
39.54	6.156
39.76	4.954
39.98	50.066
40.2	6.141
40.42	8.504
40.64	4.339
40.86	5.151
41.08	5.146
41.3	0.592
41.52	11.273
41.74	5.938
41.96	23.747
42.18	6.668
42.4	2.651
42.62	0.253
42.84	93.151
43.06	83.512
43.28	14.022
43.5	1.78
43.72	4.304
43.94	64.469
44.16	7.651
44.38	0.913
44.6	13.683
44.82	52.971
45.04	17.114
45.26	24.161
45.48	10.413
45.7	5.382
45.92	3.335
46.14	2.874
46.36	60.882
46.58	13.666
46.8	0.537
47.02	9.731
47.24	17.715
47.46	10.482
47.68	2.488
47.9	6.345
48.12	10.295
48.34	2.49
48.56	7.67
48.78	23.89
49	4.677
49.22	5.249
49.44	7.285
49.66	17.514
49.88	10.711
50.1	3.212
50.32	5.437
50.54	1.475
50.76	4.576
50.98	16.716
51.2	5.922
51.42	22.019
51.64	7.439
51.86	62.886
52.08	58.861
52.3	9.279
52.52	11.315
52.74	1.474
52.96	5.511
53.18	8.934
53.4	7.953
53.62	2.86
53.84	5.553
54.06	5.13
54.28	0.732
54.5	7.37
54.72	4.9
54.94	14.92
55.16	21.805
55.38	18.604
55.6	45.847
55.82	1.286
56.04	6.397
56.26	10.417
56.48	11.511
56.7	0.603
56.92	6.54
57.14	7.176
57.36	5.286
57.58	3.271
57.8	3.852
58.02	59.443
58.24	121.815
58.46	4.649
58.68	2.884
58.9	5.413
59.12	9.248
59.34	37.241
59.56	13.315
59.78	7.028
60	2.073
60.22	12.082
60.44	74.212
60.66	16.607
60.88	1.572
61.1	85.323
61.32	75.334
61.54	3.702
61.76	0.019
61.98	3.528
62.2	2.15
62.42	5.233
62.64	0.435
62.86	3.333
63.08	4.353
63.3	5.412
63.52	1.568
63.74	54.424
63.96	32.414
64.18	5.415
64.4	3.11
64.62	2.626
64.84	12.391
65.06	3.245
65.28	0.04
65.5	23.091
65.72	73.083
65.94	11.687
66.16	0.422
66.38	11.405
66.6	5.005
66.82	3.054
67.04	9.127
67.26	6.64
67.48	14.181
67.7	15.385
67.92	5.431
68.14	3.757
68.36	4.849
68.58	10.162
68.8	15.372
69.02	7.57
69.24	0.773
69.46	17.229
69.68	8.749
69.9	8.503
70.12	10.596
70.34	11.397
70.56	1.227
70.78	17.293
71	24.347
71.22	7.293
71.44	7.209
71.66	8.117
71.88	7.757
72.1	2.276
72.32	3.491
72.54	0.497
72.76	15.554
72.98	11.492
73.2	8.198
73.42	8.341
73.64	8.295
73.86	5.322
74.08	7.357
74.3	6.598
74.52	9.15
74.74	12.932
74.96	12.778
75.18	8.632
75.4	8.383
75.62	0.727
75.84	9.571
76.06	3.72
76.28	17.828
76.5	12.978
76.72	15.456
76.94	2.655
77.16	2.104
77.38	7.503
77.6	9.629
77.82	1.706
78.04	6.686
78.26	8.766
78.48	0.486
78.7	22.305
78.92	9.069
79.14	7.311
79.36	1.984
79.58	3.686
79.8	4.451
80.02	3.123
80.24	55.541
80.46	24.678
80.68	9.648
80.9	2.862
81.12	6.009
81.34	5.164
81.56	7.846
81.78	6.967
82	13.9
82.22	6.796
82.44	6.742
82.66	1.605
82.88	4.503
83.1	8.357
83.32	11.471
83.54	8.673
83.76	17.376
83.98	22.242
84.2	2.305
84.42	6.577
84.64	6.019
84.86	9.278
85.08	9.391
85.3	0.65
85.52	10
85.74	1.829
85.96	5.634
86.18	13.609
86.4	9.402
86.62	4.312
86.84	6.158
87.06	7.819
87.28	6.668
87.5	12.738
87.72	3.66
87.94	0.451
88.16	8.257
88.38	30.455
88.6	2.661
88.82	6.819
89.04	9.175
89.26	4.676
89.48	13.264
89.7	5.264
89.92	10.4
