Measurement: Powder, Xray Data XY Processed
Mineral: Warwickite
Rruff sample: R050674
Ideal chemistry: (Mg,Ti^4+^,Fe^3+^,Cr^3+^,Al)_2_O(BO_3_)
Locality: Edenville, Orange County, New York, USA
Source: University of Arizona Mineral Museum
Description: Black prismatic crystals embedded in matrix
Diffraction sample description: Powder
Measured chemistry: (Mg_1.23_Ti_0.39_Fe^2+^_0.17_Al_0.19_Fe^3+^_0.02_)_Î£=2_O(BO_3_) ; B not measured but estimated by difference and charge balance
Cell parameters: a: 9.2184(4) b: 3.09355(9) c: 9.3629(5) alpha: 90. beta: 90. gamma: 90. volume: 267.01(1) crystal system: orthorhombic
x	intensity
5	0
5.22	7.616
5.44	9.998
5.66	20.875
5.88	14.337
6.1	6.876
6.32	8.882
6.54	0.426
6.76	19.688
6.98	15.588
7.2	0.973
7.42	10.794
7.64	15.497
7.86	9.978
8.08	2.098
8.3	5.664
8.52	3.404
8.74	5.885
8.96	19.124
9.18	2.41
9.4	7.513
9.62	14.32
9.84	12.08
10.06	10
10.28	12.61
10.5	5.781
10.72	5.797
10.94	9.413
11.16	5.021
11.38	5.303
11.6	9.44
11.82	8.597
12.04	0.53
12.26	1.291
12.48	0.088
12.7	3.223
12.92	22.216
13.14	9.851
13.36	7.032
13.58	17.819
13.8	7.664
14.02	6.385
14.24	14.382
14.46	2.623
14.68	6.688
14.9	13.636
15.12	2.689
15.34	9.928
15.56	4.199
15.78	9.716
16	1.143
16.22	1.377
16.44	13.717
16.66	12.168
16.88	1.953
17.1	4.107
17.32	11.483
17.54	7.95
17.76	6.877
17.98	3.118
18.2	7.569
18.42	13.798
18.64	15.094
18.86	14.619
19.08	11.787
19.3	1.771
19.52	0.856
19.74	6.983
19.96	11.253
20.18	6.203
20.4	5.736
20.62	2.417
20.84	9.934
21.06	17.17
21.28	82.447
21.5	27.303
21.72	1.127
21.94	1.242
22.16	7.073
22.38	0.532
22.6	11.346
22.82	21.195
23.04	6.481
23.26	3.328
23.48	2.894
23.7	12.242
23.92	27.254
24.14	3.643
24.36	0.502
24.58	14.423
24.8	0.85
25.02	13.701
25.24	11.821
25.46	7.487
25.68	19.644
25.9	8.83
26.12	0.354
26.34	14.248
26.56	9.385
26.78	7.8
27	0.532
27.22	14.459
27.44	24.323
27.66	23.866
27.88	3.165
28.1	9.288
28.32	2.654
28.54	16.422
28.76	0.423
28.98	3.442
29.2	17.121
29.42	21.181
29.64	12.541
29.86	4.761
30.08	12.116
30.3	37.05
30.52	15.343
30.74	12.33
30.96	31.769
31.18	8.028
31.4	7.65
31.62	0.113
31.84	7.29
32.06	0.378
32.28	15.969
32.5	2.999
32.72	29.248
32.94	14.138
33.16	5.711
33.38	0.914
33.6	11.534
33.82	0.772
34.04	0.352
34.26	11.747
34.48	3.456
34.7	117.562
34.92	206.285
35.14	23.683
35.36	37.223
35.58	0.935
35.8	5.243
36.02	0.713
36.24	40.264
36.46	8.297
36.68	21.006
36.9	5.266
37.12	1.39
37.34	2.618
37.56	4.338
37.78	7.881
38	8.699
38.22	4.587
38.44	5.071
38.66	12.782
38.88	3.121
39.1	14.572
39.32	14.171
39.54	8.947
39.76	4.551
39.98	6.955
40.2	10.121
40.42	18.076
40.64	13.483
40.86	10.96
41.08	19.919
41.3	9.791
41.52	2.258
41.74	0.404
41.96	15.472
42.18	3.443
42.4	12.685
42.62	13.858
42.84	12.273
43.06	35.393
43.28	27.416
43.5	24.552
43.72	8.534
43.94	4.121
44.16	19.602
44.38	11.964
44.6	8.196
44.82	2.111
45.04	0.727
45.26	0.804
45.48	13.139
45.7	13.289
45.92	35.455
46.14	10.134
46.36	9.187
46.58	0.538
46.8	1.951
47.02	3.523
47.24	8.965
47.46	2.203
47.68	12.041
47.9	5.269
48.12	16.567
48.34	6.507
48.56	6.878
48.78	11.116
49	5.152
49.22	6.585
49.44	5.422
49.66	20.301
49.88	3.008
50.1	8.157
50.32	11.467
50.54	0.406
50.76	13.706
50.98	19.52
51.2	32.09
51.42	9.133
51.64	10.916
51.86	13.739
52.08	0.953
52.3	0.021
52.52	0.31
52.74	27.63
52.96	10.389
53.18	16.474
53.4	7.239
53.62	7.004
53.84	11.273
54.06	3.259
54.28	6.57
54.5	0.824
54.72	15.394
54.94	18.773
55.16	7.274
55.38	0.943
55.6	11.773
55.82	2.642
56.04	5.592
56.26	3.22
56.48	2.898
56.7	14.583
56.92	11.16
57.14	9.269
57.36	6.297
57.58	0.836
57.8	1.434
58.02	13.943
58.24	13.151
58.46	10.739
58.68	7.267
58.9	11.169
59.12	10.154
59.34	15.005
59.56	15.817
59.78	21.731
60	20.306
60.22	9.811
60.44	3.455
60.66	0.389
60.88	1.966
61.1	2.358
61.32	13.976
61.54	7.082
61.76	14.076
61.98	13.634
62.2	11.82
62.42	0.134
62.64	0.991
62.86	13.068
63.08	8.307
63.3	15.774
63.52	15.487
63.74	11.042
63.96	7.616
64.18	13.145
64.4	7.756
64.62	10.098
64.84	15.328
65.06	5.63
65.28	6.102
65.5	5.719
65.72	13.611
65.94	3.094
66.16	4.772
66.38	3.743
66.6	2.956
66.82	4.648
67.04	6.403
67.26	0.128
67.48	5.757
67.7	0.741
67.92	22.248
68.14	17.432
68.36	3.128
68.58	32.208
68.8	3.232
69.02	1.998
69.24	9.07
69.46	0.491
69.68	14.296
69.9	5.041
70.12	0.841
70.34	3.087
70.56	1.919
70.78	19.413
71	18.465
71.22	0.734
71.44	0.714
71.66	5.779
71.88	5.487
72.1	0.195
72.32	8.729
72.54	0.124
72.76	3.457
72.98	9.87
73.2	1.695
73.42	0.358
73.64	14.382
73.86	14.94
74.08	4.7
74.3	9.315
74.52	7.022
74.74	13.008
74.96	17.063
75.18	4.236
75.4	12.922
75.62	6.249
75.84	8.688
76.06	2.468
76.28	0.84
76.5	2.208
76.72	8.888
76.94	10.017
77.16	18.887
77.38	16.501
77.6	3.211
77.82	4.588
78.04	10.005
78.26	9.478
78.48	5.944
78.7	5.444
78.92	0.698
79.14	12.936
79.36	9.842
79.58	7.397
79.8	7.456
80.02	15.773
80.24	22.449
80.46	0.588
80.68	0.771
80.9	6.365
81.12	9.583
81.34	8.223
81.56	5.584
81.78	11.525
82	18.088
82.22	6.203
82.44	5.367
82.66	3.876
82.88	5.41
83.1	13.551
83.32	0.74
83.54	15.859
83.76	1.956
83.98	15.597
84.2	0.017
84.42	0.439
84.64	8.054
84.86	11.805
85.08	5.609
85.3	4.06
85.52	11.021
85.74	6.566
85.96	1.796
86.18	4.81
86.4	11
86.62	2.211
86.84	13.057
87.06	14.112
87.28	13.875
87.5	3.205
87.72	7.17
87.94	15.338
88.16	14.227
88.38	0.85
88.6	2.337
88.82	13.583
89.04	9.948
89.26	0.535
89.48	2.616
89.7	5.241
89.92	13.038
