Measurement: Powder, Xray Data XY Processed
Mineral: Wavellite
Rruff sample: R040176
Ideal chemistry: Al_3_(PO_4_)_2_(OH)_3_5H_2_O
Locality: Montgomery County, Arkansas, USA
Source: University of Arizona Mineral Museum
Description: Pale green radial aggregates
Diffraction sample description: Powder
Measured chemistry: (Al_0.88_V_0.03_)_3_(P_0.97_O_4_)_2_((OH)_1.74_F_0.26_)_3_Â·5H_2_O
Cell parameters: a: 9.6156(3) b: 17.3513(7) c: 6.9907(2) alpha: 90. beta: 90. gamma: 90. volume: 1166.37(5) crystal system: orthorhombic
x	intensity
5	0
5.22	20.9881
5.44	13.4356
5.66	14.1531
5.88	8.38828
6.1	9.80382
6.32	10.0923
6.54	0.38459
6.76	10.0108
6.98	6.06845
7.2	2.72905
7.42	4.91598
7.64	7.36014
7.86	1.29574
8.08	4.60678
8.3	9.97048
8.52	9.12638
8.74	17.9993
8.96	10.6172
9.18	19.0563
9.4	4.72465
9.62	12.8755
9.84	15.1971
10.06	86.8973
10.28	337.818
10.5	738.49
10.72	37.4409
10.94	12.625
11.16	12.4933
11.38	4.48255
11.6	4.90859
11.82	6.35033
12.04	2.67202
12.26	11.9563
12.48	0.913498
12.7	2.23638
12.92	4.71342
13.14	10.6966
13.36	5.60776
13.58	3.65202
13.8	6.53625
14.02	8.4124
14.24	8.09434
14.46	12.5794
14.68	3.01396
14.9	11.5175
15.12	0.389652
15.34	10.0482
15.56	42.7059
15.78	74.097
16	7.12994
16.22	6.3354
16.44	61.917
16.66	7.6555
16.88	4.6945
17.1	6.80369
17.32	7.90249
17.54	2.98781
17.76	4.04668
17.98	68.1129
18.2	6.1208
18.42	115.9
18.64	85.0259
18.86	20.7755
19.08	6.08283
19.3	1.32834
19.52	5.5743
19.74	6.84938
19.96	11.6858
20.18	7.99971
20.4	6.1929
20.62	8.36216
20.84	8.43564
21.06	13.0075
21.28	0.991698
21.5	6.85284
21.72	3.07022
21.94	33.8302
22.16	7.0015
22.38	15.4023
22.6	20.3867
22.82	6.5899
23.04	34.5034
23.26	16.1484
23.48	11.3369
23.7	0.383475
23.92	8.35087
24.14	3.56368
24.36	8.69161
24.58	14.2445
24.8	8.97524
25.02	17.5579
25.24	11.0885
25.46	13.5575
25.68	8.26115
25.9	120.035
26.12	88.1164
26.34	7.19105
26.56	0.76565
26.78	7.42793
27	6.3776
27.22	20.5711
27.44	11.7653
27.66	231.745
27.88	42.0981
28.1	7.74831
28.32	92.8097
28.54	20.5374
28.76	107.795
28.98	49.0979
29.2	26.4457
29.42	3.2378
29.64	5.48024
29.86	22.4684
30.08	4.45917
30.3	45.4698
30.52	31.5471
30.74	12.1878
30.96	25.9902
31.18	22.2884
31.4	18.8264
31.62	4.83445
31.84	15.4514
32.06	38.6206
32.28	3.92982
32.5	19.0998
32.72	10.4193
32.94	6.14143
33.16	2.15651
33.38	3.62496
33.6	9.53522
33.82	2.33706
34.04	0.609371
34.26	36.5502
34.48	93.3688
34.7	25.5264
34.92	143.82
35.14	8.10422
35.36	75.3807
35.58	4.17318
35.8	12.5592
36.02	0.692544
36.24	27.1186
36.46	9.43146
36.68	11.8302
36.9	6.6642
37.12	2.41196
37.34	19.1975
37.56	7.1907
37.78	3.06554
38	17.9493
38.22	29.0227
38.44	5.34012
38.66	14.0881
38.88	8.2871
39.1	2.05832
39.32	8.97983
39.54	12.0291
39.76	40.6123
39.98	10.6959
40.2	1.72874
40.42	23.169
40.64	3.69988
40.86	6.3759
41.08	14.858
41.3	13.956
41.52	10.4059
41.74	9.52223
41.96	6.54101
42.18	0.62991
42.4	8.43189
42.62	0.627226
42.84	32.4213
43.06	98.7439
43.28	27.2281
43.5	7.79927
43.72	1.3104
43.94	1.27556
44.16	31.0954
44.38	23.3026
44.6	10.2125
44.82	5.09994
45.04	10.3278
45.26	3.13565
45.48	2.9895
45.7	13.5477
45.92	59.3843
46.14	24.1736
46.36	33.0572
46.58	12.3937
46.8	2.87976
47.02	10.8622
47.24	10.7934
47.46	7.00924
47.68	2.94134
47.9	6.88721
48.12	20.3836
48.34	9.42929
48.56	0.65361
48.78	1.14249
49	8.15602
49.22	6.29521
49.44	10.726
49.66	3.17786
49.88	4.5079
50.1	10.2774
50.32	25.6872
50.54	10.5294
50.76	4.99066
50.98	9.92757
51.2	8.27687
51.42	7.34666
51.64	4.50896
51.86	3.38851
52.08	7.238
52.3	30.8134
52.52	19.055
52.74	0.978873
52.96	15.4283
53.18	24.0712
53.4	24.4428
53.62	5.47554
53.84	8.40975
54.06	1.35103
54.28	5.34117
54.5	9.80114
54.72	11.0768
54.94	17.3139
55.16	6.59824
55.38	20.5449
55.6	3.3408
55.82	2.3226
56.04	6.92339
56.26	11.6838
56.48	5.56203
56.7	0.121174
56.92	5.40269
57.14	23.0993
57.36	17.8501
57.58	0.642989
57.8	17.4525
58.02	24.547
58.24	7.44016
58.46	2.58303
58.68	2.2132
58.9	21.8005
59.12	10.0973
59.34	29.6039
59.56	16.0531
59.78	7.37452
60	13.8277
60.22	51.5001
60.44	12.0133
60.66	0.13084
60.88	8.65968
61.1	18.3329
61.32	10.5136
61.54	5.73427
61.76	5.78503
61.98	0.859679
62.2	3.68969
62.42	6.94963
62.64	9.67321
62.86	11.4292
63.08	11.4731
63.3	10.6035
63.52	4.5899
63.74	3.73034
63.96	35.0445
64.18	7.66763
64.4	30.5788
64.62	4.69628
64.84	9.50377
65.06	3.54754
65.28	3.42474
65.5	4.50707
65.72	1.27212
65.94	4.29169
66.16	16.333
66.38	4.30887
66.6	12.7501
66.82	4.72937
67.04	8.82851
67.26	17.9913
67.48	2.65401
67.7	13.8548
67.92	6.99586
68.14	3.26081
68.36	0.520658
68.58	13.3082
68.8	1.02628
69.02	0.009441
69.24	10.9187
69.46	12.0173
69.68	7.73823
69.9	11.3092
70.12	4.52919
70.34	10.2794
70.56	9.25166
70.78	14.9652
71	10.246
71.22	13.5464
71.44	18.7338
71.66	2.86784
71.88	3.8275
72.1	17.142
72.32	3.66672
72.54	7.53341
72.76	3.61704
72.98	2.78923
73.2	5.82613
73.42	5.76635
73.64	4.67085
73.86	11.468
74.08	4.33007
74.3	1.17483
74.52	6.96202
74.74	7.58785
74.96	3.27998
75.18	13.2861
75.4	0.221995
75.62	1.5669
75.84	1.64501
76.06	10.4085
76.28	9.65756
76.5	14.9457
76.72	1.74135
76.94	5.49697
77.16	2.40081
77.38	11.9776
77.6	12.3086
77.82	5.54561
78.04	2.30734
78.26	1.85091
78.48	1.39321
78.7	12.6145
78.92	6.57748
79.14	1.52155
79.36	14.9853
79.58	5.85564
79.8	13.1998
80.02	10.0143
80.24	3.91734
80.46	7.90452
80.68	10.0056
80.9	4.05734
81.12	9.23481
81.34	15.4852
81.56	11.523
81.78	1.61539
82	10.4695
82.22	7.19772
82.44	4.23451
82.66	7.33263
82.88	1.57377
83.1	12.5226
83.32	7.56763
83.54	5.5525
83.76	8.33206
83.98	3.51371
84.2	3.42116
84.42	11.902
84.64	8.00975
84.86	3.41149
85.08	9.39289
85.3	8.53515
85.52	5.65637
85.74	1.5901
85.96	0.587352
86.18	3.54782
86.4	5.27221
86.62	11.2051
86.84	8.83171
87.06	8.96093
87.28	3.93638
87.5	10.0705
87.72	7.31286
87.94	6.54897
88.16	1.79941
88.38	4.03468
88.6	0.668735
88.82	4.64222
89.04	10.1491
89.26	9.22529
89.48	7.01111
89.7	7.10018
89.92	2.92426
