Measurement: Powder, Xray Data XY Processed
Mineral: Weddellite
Rruff sample: R050242
Ideal chemistry: Ca(C_2_)^6+^O_4_2H_2_O
Locality: Biggs, Wasco County, Oregon, USA
Source: Marcus Origlieri
Description: Isolated yellowish brown crystal
Diffraction sample description: Powder
Measured chemistry: Ca_1.00_(C_2_O_4_)Â·2H_2_O ; C not measured
Cell parameters: a: 12.3693(4) b: 12.3693(4) c: 7.3567(2) alpha: 90 beta: 90 gamma: 90 volume: 1125.58(6) crystal system: tetragonal
x	intensity
5	0
5.22	15.4494
5.44	20.1167
5.66	10.3074
5.88	9.14536
6.1	5.64506
6.32	4.31991
6.54	7.14014
6.76	5.74724
6.98	16.9101
7.2	4.96719
7.42	6.76797
7.64	7.79657
7.86	6.60148
8.08	2.64085
8.3	3.98266
8.52	3.73392
8.74	10.1687
8.96	5.46908
9.18	0.396819
9.4	2.90222
9.62	3.00904
9.84	9.29106
10.06	9.18181
10.28	14.3886
10.5	10.4864
10.72	5.59141
10.94	8.47751
11.16	5.97912
11.38	8.2742
11.6	3.29585
11.82	8.1762
12.04	10.0731
12.26	11.2904
12.48	2.7908
12.7	14.5
12.92	10.9626
13.14	12.3386
13.36	3.35342
13.58	10.6383
13.8	3.95802
14.02	37.3383
14.24	82.9445
14.46	27.8238
14.68	11.6826
14.9	32.56
15.12	14.7499
15.34	7.91261
15.56	17.3341
15.78	3.90448
16	6.24209
16.22	11.5208
16.44	4.6182
16.66	3.78678
16.88	5.79882
17.1	6.29707
17.32	4.19897
17.54	5.93984
17.76	5.83799
17.98	10.4654
18.2	4.95017
18.42	13.7447
18.64	5.46616
18.86	11.0994
19.08	4.72269
19.3	5.9347
19.52	1.79874
19.74	14.5594
19.96	33.4128
20.18	34.3982
20.4	9.27519
20.62	15.2446
20.84	18.6699
21.06	18.45
21.28	10.7692
21.5	3.56515
21.72	7.33094
21.94	11.9758
22.16	2.05585
22.38	15.5961
22.6	9.14185
22.82	33.7895
23.04	6.4597
23.26	8.26785
23.48	7.25467
23.7	3.3038
23.92	16.9041
24.14	25.0542
24.36	26.0081
24.58	7.6152
24.8	0.215555
25.02	5.8312
25.24	6.91485
25.46	10.6215
25.68	12.9337
25.9	17.2447
26.12	5.24837
26.34	17.7971
26.56	1.90786
26.78	8.49754
27	18.9065
27.22	8.71424
27.44	7.51954
27.66	6.41778
27.88	7.75274
28.1	5.49665
28.32	7.16464
28.54	8.23734
28.76	10.8396
28.98	19.8502
29.2	5.66874
29.42	10.3564
29.64	4.76365
29.86	8.25417
30.08	15.4166
30.3	7.51902
30.52	2.42982
30.74	13.4582
30.96	15.1253
31.18	4.90971
31.4	14.7682
31.62	5.45296
31.84	55.7954
32.06	24.6321
32.28	215.7
32.5	13.9366
32.72	11.8299
32.94	5.79898
33.16	12.4137
33.38	9.13293
33.6	3.83211
33.82	5.68759
34.04	5.6134
34.26	4.71399
34.48	4.02487
34.7	13.7382
34.92	4.02222
35.14	4.83413
35.36	13.824
35.58	5.12584
35.8	6.71461
36.02	15.7395
36.24	16.5688
36.46	5.46615
36.68	12.8511
36.9	6.55104
37.12	33.3208
37.34	34.2612
37.56	14.159
37.78	9.90748
38	17.8218
38.22	7.24189
38.44	17.2179
38.66	1.38771
38.88	2.26234
39.1	1.04304
39.32	5.92853
39.54	12.954
39.76	0.984381
39.98	7.98764
40.2	207.885
40.42	10.8137
40.64	6.88796
40.86	23.6652
41.08	1.00571
41.3	4.44594
41.52	11.7429
41.74	10.0439
41.96	14.339
42.18	4.59596
42.4	1.70428
42.62	54.1696
42.84	15.9935
43.06	12.509
43.28	10.3254
43.5	8.87942
43.72	6.61178
43.94	1.5695
44.16	1.53303
44.38	4.19512
44.6	0.926455
44.82	16.1066
45.04	0.482842
45.26	12.2732
45.48	6.49168
45.7	3.25565
45.92	7.57363
46.14	6.50859
46.36	15.6953
46.58	14.639
46.8	4.70946
47.02	6.79973
47.24	9.45798
47.46	3.84322
47.68	4.01549
47.9	116.178
48.12	18.2836
48.34	8.02167
48.56	16.1268
48.78	4.28651
49	0.480551
49.22	8.92672
49.44	12.1082
49.66	24.2499
49.88	6.10791
50.1	7.36437
50.32	8.66024
50.54	8.68552
50.76	1.93043
50.98	10.0173
51.2	8.87009
51.42	2.6755
51.64	5.59361
51.86	3.617
52.08	0.929502
52.3	10.9805
52.52	42.0981
52.74	17.1221
52.96	3.16109
53.18	0.812879
53.4	13.2834
53.62	1.6357
53.84	5.85298
54.06	26.0192
54.28	16.1851
54.5	8.26519
54.72	8.45472
54.94	2.33224
55.16	5.33938
55.38	4.49922
55.6	5.60856
55.82	7.72175
56.04	5.59808
56.26	6.78128
56.48	3.02999
56.7	8.05929
56.92	4.12194
57.14	4.02634
57.36	2.13204
57.58	1.20378
57.8	4.60839
58.02	6.39689
58.24	8.29348
58.46	0.226702
58.68	8.13496
58.9	6.0487
59.12	1.82632
59.34	5.73341
59.56	1.24036
59.78	1.85047
60	12.2828
60.22	2.64649
60.44	1.70756
60.66	2.85855
60.88	8.87443
61.1	4.04712
61.32	4.03735
61.54	0.207957
61.76	18.3477
61.98	13.3691
62.2	10.5369
62.42	7.46734
62.64	10.3365
62.86	1.19646
63.08	6.32693
63.3	4.35377
63.52	1.01138
63.74	5.00606
63.96	0.151537
64.18	0.791627
64.4	7.76463
64.62	4.37235
64.84	9.6274
65.06	9.63505
65.28	4.95105
65.5	13.8267
65.72	5.85868
65.94	5.90578
66.16	1.05059
66.38	0.855422
66.6	11.2508
66.82	6.47063
67.04	6.04817
67.26	10.7877
67.48	14.7442
67.7	6.50373
67.92	5.80137
68.14	0.230276
68.36	6.6644
68.58	5.65839
68.8	4.80464
69.02	8.76718
69.24	2.44463
69.46	8.16058
69.68	7.48768
69.9	7.65957
70.12	5.67174
70.34	11.4166
70.56	2.43237
70.78	7.51529
71	7.53581
71.22	6.73677
71.44	15.7538
71.66	1.9487
71.88	0.62848
72.1	5.8516
72.32	4.07895
72.54	5.05057
72.76	9.1912
72.98	2.31962
73.2	2.62518
73.42	5.873
73.64	6.98402
73.86	5.07243
74.08	1.29731
74.3	9.39418
74.52	12.3997
74.74	5.57328
74.96	1.54833
75.18	1.54309
75.4	9.57419
75.62	8.29775
75.84	5.02081
76.06	1.91589
76.28	10.3047
76.5	6.05009
76.72	7.92797
76.94	5.75739
77.16	1.21433
77.38	3.15814
77.6	9.19821
77.82	8.18666
78.04	3.28544
78.26	6.48885
78.48	10.621
78.7	4.21708
78.92	2.66837
79.14	7.67289
79.36	9.54904
79.58	2.51973
79.8	5.42627
80.02	2.22222
80.24	1.22063
80.46	3.09576
80.68	3.13088
80.9	0.187028
81.12	5.21163
81.34	4.92987
81.56	8.09955
81.78	2.27277
82	0.38371
82.22	6.62598
82.44	4.81136
82.66	0.871458
82.88	0.863721
83.1	1.85122
83.32	0.185813
83.54	0.011314
83.76	4.97959
83.98	5.05253
84.2	1.96986
84.42	7.77051
84.64	2.90708
84.86	2.7888
85.08	5.96687
85.3	9.98295
85.52	4.26335
85.74	2.23396
85.96	4.2945
86.18	6.17292
86.4	4.27745
86.62	2.37905
86.84	1.4659
87.06	1.44091
87.28	12.6511
87.5	4.87738
87.72	2.03786
87.94	1.9545
88.16	7.08006
88.38	5.08406
88.6	6.11294
88.82	4.24775
89.04	4.46076
89.26	3.57323
89.48	2.21252
89.7	5.97641
89.92	7.68988
