Measurement: Powder, Xray Data XY Processed
Mineral: Wendwilsonite
Rruff sample: R050398
Ideal chemistry: Ca_2_Mg(As^5+^O_4_)_2_2H_2_O
Locality: Bou Azzer, Morocco
Source: Marcus Origlieri
Description: Stout prismatic red crystals
Diffraction sample description: Powder
Measured chemistry: Ca_2.00_(Mg_0.54_Co_0.31_Zn_0.15_)(As_1.00_O_4_)_2_Â·2H_2_O
Cell parameters: a: 5.8113(3) b: 12.9078(3) c: 5.6321(3) alpha: 90. beta: 107.526(3) gamma: 90. volume: 402.86(2) crystal system: monoclinic
x	intensity
5	0
5.22	11.0436
5.44	12.2986
5.66	13.8073
5.88	8.27895
6.1	24.796
6.32	20.4796
6.54	8.04767
6.76	15.7966
6.98	1.86129
7.2	19.0761
7.42	6.1343
7.64	8.13733
7.86	16.529
8.08	1.47941
8.3	23.6565
8.52	6.79908
8.74	8.75452
8.96	3.95107
9.18	8.9878
9.4	13.8773
9.62	1.63886
9.84	18.7915
10.06	17.545
10.28	4.17083
10.5	0.958427
10.72	10.8425
10.94	3.77924
11.16	6.92902
11.38	9.00353
11.6	2.9623
11.82	18.5043
12.04	25.8835
12.26	14.9718
12.48	16.5252
12.7	15.2467
12.92	5.96443
13.14	6.36852
13.36	11.2648
13.58	15.99
13.8	132.653
14.02	12.6415
14.24	17.6423
14.46	10.8078
14.68	10.8863
14.9	10.4259
15.12	9.66246
15.34	1.12031
15.56	6.15296
15.78	12.8509
16	12.7754
16.22	15.6185
16.44	16.2536
16.66	2.45497
16.88	15.0781
17.1	13.3496
17.32	11.6661
17.54	41.4438
17.76	8.18178
17.98	67.1185
18.2	1.37951
18.42	2.31654
18.64	6.97132
18.86	8.27496
19.08	1.64143
19.3	1.30309
19.52	0.619392
19.74	21.2041
19.96	6.02928
20.18	9.20613
20.4	7.41179
20.62	8.81903
20.84	11.73
21.06	16.9347
21.28	6.72021
21.5	25.2287
21.72	16.2748
21.94	6.15934
22.16	16.8762
22.38	6.70623
22.6	10.5518
22.82	11.1524
23.04	13.1546
23.26	10.2027
23.48	23.9839
23.7	46.9226
23.92	19.3514
24.14	17.0617
24.36	7.15804
24.58	18.5336
24.8	12.4431
25.02	7.64855
25.24	3.75817
25.46	7.77484
25.68	6.54885
25.9	8.44806
26.12	20.4298
26.34	143.282
26.56	311.099
26.78	6.10198
27	1.76924
27.22	0.897781
27.44	27.6951
27.66	236.08
27.88	20.2129
28.1	6.6106
28.32	22.0556
28.54	28.3298
28.76	4.85117
28.98	4.34943
29.2	15.748
29.42	2.87896
29.64	26.3101
29.86	430.004
30.08	37.0552
30.3	17.032
30.52	5.60053
30.74	1.09206
30.96	8.21828
31.18	11.0103
31.4	9.74128
31.62	2.48212
31.84	17.086
32.06	26.8483
32.28	56.0403
32.5	128.928
32.72	6.55079
32.94	5.48505
33.16	31.4231
33.38	49.452
33.6	1.28079
33.82	3.94522
34.04	10.6418
34.26	16.0868
34.48	31.6026
34.7	61.9607
34.92	11.0883
35.14	13.774
35.36	17.9215
35.58	2.85185
35.8	16.252
36.02	12.9187
36.24	7.15974
36.46	20.8039
36.68	13.3253
36.9	8.9468
37.12	3.62438
37.34	6.04991
37.56	12.7012
37.78	13.34
38	10.6041
38.22	22.5008
38.44	1.51008
38.66	58.2984
38.88	11.9612
39.1	10.7124
39.32	6.53476
39.54	16.675
39.76	5.13891
39.98	36.0384
40.2	14.5022
40.42	15.2149
40.64	6.71023
40.86	14.4246
41.08	0.373466
41.3	10.8591
41.52	14.466
41.74	8.79314
41.96	10.0473
42.18	1.20699
42.4	6.6919
42.62	13.9206
42.84	19.9516
43.06	103.033
43.28	44.7436
43.5	25.1817
43.72	23.7217
43.94	13.8102
44.16	25.2658
44.38	9.85214
44.6	6.20027
44.82	10.2812
45.04	19.6859
45.26	28.4124
45.48	0.491322
45.7	9.7849
45.92	4.35906
46.14	5.75582
46.36	0.820435
46.58	3.55508
46.8	18.1246
47.02	22.7524
47.24	2.96214
47.46	6.25898
47.68	18.1147
47.9	3.37678
48.12	17.9237
48.34	17.4776
48.56	7.5511
48.78	11.0611
49	19.9252
49.22	18.5018
49.44	12.2375
49.66	0.61021
49.88	42.5772
50.1	23.1669
50.32	67.4629
50.54	9.89696
50.76	3.45377
50.98	22.6981
51.2	10.3832
51.42	14.4858
51.64	6.77806
51.86	3.88872
52.08	3.80575
52.3	0.532043
52.52	8.68253
52.74	7.14864
52.96	12.3933
53.18	50.6142
53.4	38.025
53.62	48.258
53.84	15.5124
54.06	41.0141
54.28	19.0583
54.5	9.41065
54.72	16.0961
54.94	20.2042
55.16	2.24172
55.38	9.68861
55.6	19.5811
55.82	26.8403
56.04	14.4454
56.26	3.49768
56.48	16.1885
56.7	15.2821
56.92	5.71561
57.14	20.0392
57.36	27.5867
57.58	15.2635
57.8	3.36851
58.02	16.0203
58.24	2.79625
58.46	15.4455
58.68	6.42407
58.9	36.0832
59.12	20.9971
59.34	21.3419
59.56	21.0747
59.78	6.84169
60	22.9425
60.22	14.5975
60.44	40.0589
60.66	16.4157
60.88	30.5671
61.1	3.83986
61.32	6.32123
61.54	5.59243
61.76	6.51134
61.98	56.7956
62.2	11.6507
62.42	25.1433
62.64	0.146477
62.86	13.8107
63.08	19.4142
63.3	16.2031
63.52	3.333
63.74	1.33353
63.96	11.5087
64.18	3.57233
64.4	17.7516
64.62	16.285
64.84	21.8597
65.06	12.0696
65.28	4.44765
65.5	0.942635
65.72	17.7223
65.94	17.1949
66.16	24.3242
66.38	50.178
66.6	21.3608
66.82	1.78714
67.04	19.1569
67.26	3.87096
67.48	9.86005
67.7	5.93379
67.92	23.5021
68.14	29.2352
68.36	12.9558
68.58	1.21183
68.8	14.8302
69.02	24.5974
69.24	15.8814
69.46	6.44926
69.68	2.85321
69.9	1.36013
70.12	3.78975
70.34	19.8256
70.56	5.00119
70.78	4.70616
71	2.06904
71.22	9.07049
71.44	26.1725
71.66	22.3213
71.88	20.9645
72.1	26.167
72.32	19.4878
72.54	2.36608
72.76	17.5244
72.98	10.4204
73.2	2.90746
73.42	10.2182
73.64	11.8145
73.86	6.72022
74.08	25.9235
74.3	25.9053
74.52	11.1909
74.74	24.2889
74.96	8.50071
75.18	8.79927
75.4	13.9374
75.62	3.03239
75.84	11.0816
76.06	13.42
76.28	15.2508
76.5	14.2796
76.72	17.8679
76.94	7.35191
77.16	7.67046
77.38	22.0954
77.6	14.8946
77.82	3.71176
78.04	15.5495
78.26	10.7332
78.48	5.2582
78.7	16.8484
78.92	18.5548
79.14	2.52609
79.36	12.0682
79.58	24.0813
79.8	3.48818
80.02	13.9757
80.24	9.10741
80.46	24.5038
80.68	13.7142
80.9	0.070957
81.12	1.4794
81.34	14.6018
81.56	9.48179
81.78	9.96599
82	12.8464
82.22	9.20124
82.44	22.6849
82.66	9.54595
82.88	15.518
83.1	9.72605
83.32	12.5694
83.54	5.9928
83.76	8.42701
83.98	20.411
84.2	15.3703
84.42	13.9716
84.64	28.8759
84.86	12.4858
85.08	19.6927
85.3	18.428
85.52	9.73062
85.74	10.9123
85.96	10.3146
86.18	14.2071
86.4	14.2753
86.62	16.3228
86.84	7.83215
87.06	6.55019
87.28	11.0958
87.5	18.5257
87.72	14.6951
87.94	15.75
88.16	9.12528
88.38	14.4956
88.6	21.7768
88.82	8.42203
89.04	17.9944
89.26	14.9199
89.48	11.5027
89.7	17.9202
89.92	19.2103
