Measurement: Powder, Xray Data XY Processed
Mineral: Whewellite
Rruff sample: R050240
Ideal chemistry: Ca(C_2_)^6+^O_4_H_2_O
Locality: Huron River, Milan, Ohio, USA
Source: Marcus Origlieri
Description: White fragment
Diffraction sample description: Powder
Measured chemistry: Ca_1.00_C_2_O_4_Â·H_2_O
Cell parameters: a: 6.2911(3) b: 14.5855(7) c: 10.1167(3) alpha: 90 beta: 109.483(4) gamma: 90 volume: 875.14(4) crystal system: monoclinic
x	intensity
5	0
5.22	4.65274
5.44	1.35773
5.66	4.16893
5.88	9.591
6.1	10.1928
6.32	4.05279
6.54	11.8764
6.76	5.56924
6.98	9.31808
7.2	10.8658
7.42	0.389488
7.64	8.77554
7.86	4.14123
8.08	15.545
8.3	13.9112
8.52	8.03167
8.74	5.06239
8.96	9.00842
9.18	2.95374
9.4	5.24818
9.62	7.23057
9.84	4.31733
10.06	4.34225
10.28	2.71184
10.5	5.90073
10.72	3.99349
10.94	5.20712
11.16	3.38676
11.38	8.62967
11.6	4.97758
11.82	5.96163
12.04	0.779079
12.26	3.42587
12.48	6.30872
12.7	2.9134
12.92	3.0764
13.14	3.04801
13.36	1.85273
13.58	3.48991
13.8	9.21328
14.02	2.79846
14.24	3.52523
14.46	8.2021
14.68	8.04673
14.9	202.048
15.12	32.0627
15.34	276.047
15.56	6.26269
15.78	0.521686
16	1.077
16.22	1.32186
16.44	4.67233
16.66	0.938091
16.88	1.67844
17.1	3.09775
17.32	9.43151
17.54	1.68027
17.76	3.76614
17.98	1.41134
18.2	2.27102
18.42	6.69984
18.64	5.75887
18.86	8.0168
19.08	7.3673
19.3	5.19461
19.52	8.12398
19.74	8.14869
19.96	2.34355
20.18	0.482536
20.4	0.071262
20.62	3.16743
20.84	6.34511
21.06	0.543027
21.28	4.32959
21.5	2.21353
21.72	3.25632
21.94	5.17417
22.16	5.17475
22.38	6.96622
22.6	3.61845
22.82	4.00845
23.04	5.52822
23.26	2.06073
23.48	26.6784
23.7	8.37854
23.92	5.92326
24.14	3.77455
24.36	110.787
24.58	28.5874
24.8	3.89213
25.02	3.00704
25.24	2.2193
25.46	2.62585
25.68	7.84866
25.9	0.907567
26.12	5.39835
26.34	3.64178
26.56	0.21516
26.78	3.83064
27	9.04459
27.22	3.99098
27.44	0.956547
27.66	0.27189
27.88	2.38703
28.1	0.198948
28.32	4.47916
28.54	8.11256
28.76	29.6391
28.98	2.10454
29.2	4.6197
29.42	7.05454
29.64	13.5073
29.86	19.196
30.08	50.5523
30.3	26.4476
30.52	4.80245
30.74	41.0451
30.96	50.2579
31.18	6.80003
31.4	1.28031
31.62	24.9532
31.84	3.34522
32.06	6.07103
32.28	2.14374
32.5	4.79951
32.72	2.2564
32.94	4.6849
33.16	0.995689
33.38	6.06606
33.6	0.912544
33.82	3.14348
34.04	0.747948
34.26	7.83049
34.48	10.3517
34.7	0.230741
34.92	2.38548
35.14	11.9935
35.36	0.886995
35.58	20.4199
35.8	5.18738
36.02	131.048
36.24	8.39032
36.46	7.25693
36.68	7.78405
36.9	2.47568
37.12	2.10625
37.34	19.7875
37.56	7.49474
37.78	14.7708
38	0.593329
38.22	267.504
38.44	85.6866
38.66	1.74041
38.88	17.5263
39.1	10.9991
39.32	3.79273
39.54	1.66519
39.76	3.75293
39.98	91.2214
40.2	2.70928
40.42	5.13579
40.64	5.51729
40.86	29.9249
41.08	2.2018
41.3	8.38191
41.52	1.34275
41.74	4.00178
41.96	3.18754
42.18	9.14597
42.4	16.066
42.62	3.0122
42.84	4.90544
43.06	3.90578
43.28	33.3821
43.5	11.8178
43.72	38.9951
43.94	1.93682
44.16	2.71005
44.38	8.5467
44.6	7.26567
44.82	3.12268
45.04	4.41654
45.26	0.10702
45.48	10.1891
45.7	0.612564
45.92	35.7214
46.14	5.06957
46.36	17.8299
46.58	60.4672
46.8	2.16293
47.02	43.1686
47.24	38.1908
47.46	2.52437
47.68	5.99139
47.9	0.897528
48.12	54.0553
48.34	13.0542
48.56	2.1621
48.78	4.18021
49	36.9222
49.22	19.0786
49.44	44.3252
49.66	9.6505
49.88	4.58746
50.1	19.6437
50.32	27.1978
50.54	2.04488
50.76	5.56966
50.98	23.1868
51.2	3.49263
51.42	1.03745
51.64	5.45831
51.86	4.61812
52.08	2.82709
52.3	2.26912
52.52	13.4484
52.74	64.3898
52.96	8.26517
53.18	2.30544
53.4	1.336
53.62	0.678875
53.84	8.26359
54.06	9.53028
54.28	14.6935
54.5	12.7804
54.72	2.76835
54.94	2.82051
55.16	0.100539
55.38	0.036636
55.6	2.14731
55.82	4.15014
56.04	6.11865
56.26	6.98956
56.48	1.92357
56.7	0.917982
56.92	0.997807
57.14	2.88659
57.36	3.74608
57.58	4.76596
57.8	0.707935
58.02	7.36933
58.24	8.17351
58.46	5.77733
58.68	7.31256
58.9	4.22114
59.12	4.1632
59.34	0.057866
59.56	7.98434
59.78	17.9908
60	7.01827
60.22	2.0527
60.44	0.340744
60.66	4.38
60.88	0.554315
61.1	5.55681
61.32	5.58258
61.54	2.4146
61.76	18.4551
61.98	16.7595
62.2	2.02942
62.42	0.916712
62.64	7.8818
62.86	7.72268
63.08	6.93601
63.3	1.90872
63.52	3.02074
63.74	6.25146
63.96	3.39708
64.18	4.73789
64.4	0.000265
64.62	8.86151
64.84	8.91816
65.06	5.08959
65.28	4.13897
65.5	3.06514
65.72	3.16262
65.94	6.19709
66.16	2.97797
66.38	7.78404
66.6	0.664192
66.82	3.22594
67.04	11.208
67.26	6.18376
67.48	4.16716
67.7	1.36625
67.92	5.77047
68.14	7.8173
68.36	5.93059
68.58	1.22727
68.8	3.50037
69.02	4.60517
69.24	1.66507
69.46	0.709837
69.68	0.746988
69.9	9.70158
70.12	3.68699
70.34	7.26622
70.56	4.31121
70.78	0.288799
71	5.24361
71.22	2.13927
71.44	2.13522
71.66	4.20061
71.88	4.33719
72.1	8.46833
72.32	5.60373
72.54	6.65208
72.76	6.76731
72.98	7.10429
73.2	1.04267
73.42	3.10304
73.64	8.28845
73.86	5.43158
74.08	2.5329
74.3	6.51057
74.52	0.585752
74.74	1.63538
74.96	1.85997
75.18	7.69765
75.4	10.645
75.62	9.67795
75.84	2.63614
76.06	6.47662
76.28	3.3942
76.5	0.541647
76.72	5.53784
76.94	9.50665
77.16	5.33626
77.38	2.0689
77.6	1.19133
77.82	4.00778
78.04	10.0026
78.26	3.17584
78.48	3.43955
78.7	15.4406
78.92	13.2159
79.14	3.17317
79.36	7.01315
79.58	4.89159
79.8	2.71453
80.02	2.40303
80.24	1.22019
80.46	7.90695
80.68	6.9712
80.9	4.56966
81.12	9.36899
81.34	9.40892
81.56	5.31372
81.78	4.50722
82	4.49768
82.22	7.53941
82.44	0.383075
82.66	0.284929
82.88	0.123359
83.1	8.65561
83.32	8.89879
83.54	6.13481
83.76	5.31155
83.98	8.519
84.2	2.42084
84.42	3.58254
84.64	0.298581
84.86	1.2339
85.08	4.83763
85.3	5.82739
85.52	5.95433
85.74	0.254437
85.96	4.73048
86.18	2.59555
86.4	5.4581
86.62	0.724832
86.84	2.78965
87.06	5.933
87.28	3.17895
87.5	4.18713
87.72	7.21361
87.94	2.09144
88.16	2.03326
88.38	1.01736
88.6	3.93576
88.82	4.80422
89.04	9.65066
89.26	10.1735
89.48	3.10896
89.7	3.25028
89.92	1.73242
