Measurement: Powder, Xray Data XY Processed
Mineral: Witherite
Rruff sample: R050267
Ideal chemistry: BaCO_3_
Locality: Fallowfields mine, Alston Moor, England
Source: Marcus Origlieri
Description: Colorless granular aggregate
Diffraction sample description: Powder
Measured chemistry: (Ba_0.96_Sr_0.04_)CO_3_
Cell parameters: a: 5.3083(8) b: 8.8828(5) c: 6.4165(7) alpha: 90 beta: 90 gamma: 90 volume: 302.55(3) crystal system: orthorhombic
x	intensity
5	0
5.22	3.54326
5.44	5.79767
5.66	15.9909
5.88	7.60178
6.1	7.02857
6.32	7.53591
6.54	6.30343
6.76	7.00197
6.98	0.252374
7.2	11.0497
7.42	7.73307
7.64	12.378
7.86	7.68997
8.08	7.4578
8.3	4.22559
8.52	0.253294
8.74	9.23973
8.96	6.13683
9.18	7.09768
9.4	2.90434
9.62	7.70866
9.84	1.46028
10.06	7.23704
10.28	8.47916
10.5	3.66267
10.72	4.91493
10.94	0.683282
11.16	2.74103
11.38	1.09044
11.6	3.36214
11.82	0.441603
12.04	10.7327
12.26	2.85289
12.48	6.01975
12.7	4.12614
12.92	3.19626
13.14	7.13162
13.36	5.07592
13.58	5.00653
13.8	10.9282
14.02	5.95831
14.24	10.903
14.46	6.84762
14.68	4.80521
14.9	2.90834
15.12	2.77177
15.34	4.90334
15.56	9.80024
15.78	5.05253
16	6.01796
16.22	9.03842
16.44	4.82045
16.66	3.81552
16.88	1.73671
17.1	2.72976
17.32	7.33253
17.54	5.17231
17.76	3.9635
17.98	4.73814
18.2	11.157
18.42	1.93603
18.64	1.65911
18.86	1.64749
19.08	5.45157
19.3	4.40872
19.52	28.2114
19.74	2.61409
19.96	9.52645
20.18	3.73986
20.4	11.827
20.62	6.89565
20.84	6.17584
21.06	2.18716
21.28	4.43502
21.5	6.57459
21.72	11.4576
21.94	8.29518
22.16	4.8914
22.38	1.69644
22.6	4.91148
22.82	3.52223
23.04	1.0684
23.26	2.51075
23.48	13.0714
23.7	4.88023
23.92	99.5087
24.14	66.5586
24.36	167.695
24.58	19.8152
24.8	3.6612
25.02	0.621531
25.24	0.06956
25.46	0.476237
25.68	2.96884
25.9	13.3478
26.12	7.49509
26.34	4.53259
26.56	4.66927
26.78	4.55819
27	3.54268
27.22	4.26196
27.44	4.4555
27.66	7.38554
27.88	46.3692
28.1	5.4459
28.32	7.62752
28.54	5.53716
28.76	4.58969
28.98	3.94416
29.2	5.3562
29.42	1.51256
29.64	21.9048
29.86	7.89762
30.08	10.1158
30.3	5.28352
30.52	6.33105
30.74	5.25843
30.96	4.70291
31.18	0.189982
31.4	0.670673
31.62	5.40103
31.84	2.41364
32.06	1.48385
32.28	7.63671
32.5	2.39231
32.72	10.127
32.94	4.8577
33.16	6.57204
33.38	8.9356
33.6	5.58438
33.82	20.3745
34.04	13.314
34.26	99.0575
34.48	62.0256
34.7	50.9404
34.92	12.1154
35.14	10.7889
35.36	2.53094
35.58	2.1806
35.8	2.62975
36.02	2.14469
36.24	1.58074
36.46	4.92962
36.68	5.27921
36.9	4.27177
37.12	2.25824
37.34	4.53464
37.56	6.15284
37.78	0.957934
38	6.67975
38.22	2.73075
38.44	6.54298
38.66	4.38431
38.88	4.24758
39.1	9.06071
39.32	2.8086
39.54	13.1225
39.76	6.87535
39.98	1.91987
40.2	2.41189
40.42	3.45807
40.64	16.3678
40.86	5.28868
41.08	0.143363
41.3	1.17653
41.52	2.67117
41.74	7.25111
41.96	6.99381
42.18	47.7355
42.4	14.0213
42.62	3.21054
42.84	5.19956
43.06	32.0518
43.28	36.0068
43.5	10.0594
43.72	10.1909
43.94	6.22107
44.16	4.33096
44.38	30.8172
44.6	12.4877
44.82	12.6209
45.04	86.4272
45.26	15.2891
45.48	6.30899
45.7	6.37307
45.92	6.33704
46.14	4.26697
46.36	3.21222
46.58	7.41902
46.8	25.0639
47.02	71.7256
47.24	52.7384
47.46	12.5631
47.68	7.73933
47.9	4.86464
48.12	0.035686
48.34	8.11935
48.56	6.47243
48.78	4.64214
49	11.684
49.22	9.85876
49.44	6.92024
49.66	1.94704
49.88	4.10825
50.1	9.23659
50.32	4.24837
50.54	9.49675
50.76	7.82695
50.98	9.05302
51.2	8.32608
51.42	0.338003
51.64	2.45166
51.86	2.52417
52.08	4.56718
52.3	1.5056
52.52	1.54048
52.74	8.49984
52.96	3.46589
53.18	2.48644
53.4	1.19011
53.62	6.98686
53.84	10.7666
54.06	4.58685
54.28	4.27171
54.5	0.207143
54.72	15.8824
54.94	8.74644
55.16	7.63621
55.38	4.12387
55.6	1.05057
55.82	17.1197
56.04	4.57747
56.26	4.73941
56.48	18.9046
56.7	4.05657
56.92	6.24346
57.14	7.62958
57.36	5.88855
57.58	0.00807
57.8	8.25515
58.02	5.23471
58.24	5.13263
58.46	5.92461
58.68	7.02387
58.9	2.06458
59.12	10.0543
59.34	13.0142
59.56	10.8184
59.78	5.56618
60	6.40922
60.22	6.09675
60.44	1.12752
60.66	2.97944
60.88	9.78714
61.1	12.6191
61.32	10.4633
61.54	4.34778
61.76	5.39345
61.98	0.443141
62.2	6.76065
62.42	4.2064
62.64	6.50782
62.86	9.67929
63.08	0.950325
63.3	3.25547
63.52	1.50696
63.74	7.72017
63.96	3.84005
64.18	2.02173
64.4	7.06707
64.62	2.93736
64.84	5.86767
65.06	3.87882
65.28	5.8149
65.5	9.10442
65.72	5.96156
65.94	1.94629
66.16	2.39104
66.38	5.39015
66.6	6.16407
66.82	4.08108
67.04	0.052843
67.26	1.64932
67.48	4.32587
67.7	5.96704
67.92	3.32984
68.14	0.09026
68.36	33.7768
68.58	10.1715
68.8	25.7573
69.02	4.50254
69.24	3.11727
69.46	1.14354
69.68	6.95586
69.9	4.83554
70.12	5.80693
70.34	1.85145
70.56	3.94716
70.78	3.83519
71	10.9732
71.22	18.5548
71.44	14.8106
71.66	5.92742
71.88	5.21399
72.1	9.53469
72.32	5.87072
72.54	8.21761
72.76	4.46469
72.98	1.63391
73.2	6.94831
73.42	9.30416
73.64	2.22164
73.86	4.27002
74.08	2.5178
74.3	1.73549
74.52	3.8152
74.74	1.7949
74.96	8.00037
75.18	1.77901
75.4	4.56292
75.62	1.24447
75.84	3.78292
76.06	1.45802
76.28	4.21134
76.5	2.84961
76.72	13.5569
76.94	6.38673
77.16	12.7453
77.38	8.54354
77.6	10.95
77.82	4.07244
78.04	9.24515
78.26	4.56502
78.48	5.76393
78.7	1.91798
78.92	11.2758
79.14	6.55993
79.36	7.58602
79.58	6.62856
79.8	2.05033
80.02	1.90286
80.24	1.98381
80.46	4.04431
80.68	1.97906
80.9	0.055449
81.12	1.96677
81.34	4.01523
81.56	8.91146
81.78	0.897261
82	4.71332
82.22	2.21047
82.44	10.2199
82.66	6.4758
82.88	5.6268
83.1	1.64983
83.32	6.85895
83.54	4.92581
83.76	5.09731
83.98	8.21394
84.2	2.36884
84.42	0.399253
84.64	3.67908
84.86	1.74276
85.08	2.47899
85.3	10.5618
85.52	4.46895
85.74	4.22445
85.96	7.0764
86.18	2.78955
86.4	2.60944
86.62	1.45261
86.84	8.27198
87.06	20.2872
87.28	13.1934
87.5	5.96256
87.72	4.80987
87.94	6.74506
88.16	3.83053
88.38	0.787337
88.6	40.2309
88.82	22.077
89.04	5.08685
89.26	4.91674
89.48	1.15611
89.7	7.57392
89.92	2.82791
