Measurement: Powder, Xray Data XY Processed
Mineral: Witherite
Rruff sample: R040040
Ideal chemistry: BaCO_3_
Locality: Cave-in-Rock, Hardin County, Illinois, USA
Source: University of Arizona Mineral Museum
Description: Tan colored prismatic group of columnar crystals
Diffraction sample description: Powder
Measured chemistry: (Ba_0.98_Sr_0.02_)_Î£=1_CO_3_; CO_2_ estimated by difference
Cell parameters: a: 5.3072(2) b: 8.8928(3) c: 6.4245(6) alpha: 90. beta: 90. gamma: 90. volume: 303.22(2) crystal system: orthorhombic
x	intensity
5	0
5.22	20.568
5.44	22.605
5.66	27.364
5.88	14.498
6.1	8.214
6.32	13.711
6.54	2.501
6.76	3.231
6.98	1.03
7.2	7.486
7.42	11.138
7.64	15.567
7.86	10.821
8.08	8.351
8.3	5.434
8.52	2.485
8.74	0.555
8.96	3.377
9.18	6.348
9.4	12.094
9.62	4.994
9.84	6.571
10.06	9.901
10.28	7.428
10.5	10.766
10.72	3.994
10.94	3.207
11.16	1.677
11.38	1.943
11.6	7.133
11.82	2.341
12.04	5.577
12.26	11.617
12.48	5.387
12.7	1.143
12.92	7.292
13.14	5.472
13.36	0.468
13.58	7.265
13.8	3.464
14.02	1.559
14.24	2.54
14.46	2.415
14.68	2.24
14.9	7.408
15.12	8.384
15.34	2.194
15.56	8.125
15.78	6.286
16	11.37
16.22	1.221
16.44	3.509
16.66	2.559
16.88	8.61
17.1	9.028
17.32	3.949
17.54	9.939
17.76	1.095
17.98	4.122
18.2	1.885
18.42	5.007
18.64	10.906
18.86	4.517
19.08	8.433
19.3	6.395
19.52	51.057
19.74	9.892
19.96	15.205
20.18	1.421
20.4	8.269
20.62	3.199
20.84	11.252
21.06	7.532
21.28	2.611
21.5	4.598
21.72	3.633
21.94	7.784
22.16	1.509
22.38	5.896
22.6	2.166
22.82	4.736
23.04	6.243
23.26	6.803
23.48	0.184
23.7	23.789
23.92	266.512
24.14	107.512
24.36	354.649
24.58	33.988
24.8	17.246
25.02	7.848
25.24	12.393
25.46	9.012
25.68	3.526
25.9	3.948
26.12	7.464
26.34	1.533
26.56	4.508
26.78	1.147
27	2.038
27.22	7.894
27.44	7.625
27.66	20.835
27.88	74.675
28.1	4.79
28.32	3.734
28.54	3.558
28.76	3.617
28.98	4.688
29.2	2.992
29.42	9.196
29.64	33.42
29.86	9.561
30.08	9.605
30.3	4.685
30.52	0.65
30.74	6.022
30.96	1.199
31.18	0.698
31.4	4.258
31.62	1.897
31.84	2.147
32.06	10.916
32.28	0.503
32.5	7.796
32.72	6.244
32.94	5.606
33.16	0.666
33.38	2.049
33.6	7.547
33.82	48.199
34.04	39.07
34.26	105.922
34.48	160.866
34.7	132.321
34.92	11.894
35.14	1.299
35.36	8.344
35.58	6.015
35.8	2.704
36.02	6.933
36.24	4.5
36.46	5.061
36.68	3.178
36.9	1.278
37.12	5.315
37.34	7.498
37.56	4.388
37.78	7.478
38	8.293
38.22	5.942
38.44	7.248
38.66	3.868
38.88	2.624
39.1	2.534
39.32	5.293
39.54	22
39.76	5.727
39.98	2.819
40.2	7.836
40.42	7.658
40.64	15.603
40.86	10.33
41.08	6.021
41.3	0.357
41.52	0.059
41.74	0.693
41.96	34.303
42.18	106.82
42.4	19.121
42.62	10.215
42.84	8.333
43.06	61.898
43.28	6.731
43.5	1.367
43.72	14.616
43.94	2.55
44.16	25.532
44.38	40.74
44.6	20.78
44.82	25.064
45.04	123.849
45.26	26.009
45.48	9.18
45.7	4.353
45.92	5.56
46.14	7.749
46.36	5.952
46.58	6.142
46.8	55.292
47.02	85.828
47.24	81.786
47.46	8.589
47.68	2.398
47.9	4.579
48.12	0.819
48.34	5.23
48.56	4.386
48.78	6.601
49	17.804
49.22	10.096
49.44	3.003
49.66	2.24
49.88	22.691
50.1	12.129
50.32	7.494
50.54	1.032
50.76	0.104
50.98	2.356
51.2	2.046
51.42	7.65
51.64	7.661
51.86	8.672
52.08	0.359
52.3	11.618
52.52	8.458
52.74	6.136
52.96	3.775
53.18	5.572
53.4	3.989
53.62	1.151
53.84	0.397
54.06	6.957
54.28	3.552
54.5	4.961
54.72	12.276
54.94	12.799
55.16	6.561
55.38	0.935
55.6	1.962
55.82	30.377
56.04	15.759
56.26	13.038
56.48	21.151
56.7	3.787
56.92	1.445
57.14	5.205
57.36	12.688
57.58	2.126
57.8	3.804
58.02	1.93
58.24	4.576
58.46	4.82
58.68	6.023
58.9	3.917
59.12	15.63
59.34	9.449
59.56	1.943
59.78	1.482
60	5.07
60.22	1.369
60.44	5.993
60.66	14.554
60.88	18.261
61.1	28.877
61.32	14.898
61.54	6.804
61.76	11.649
61.98	3.071
62.2	18.898
62.42	4.362
62.64	3.096
62.86	2.839
63.08	1.504
63.3	4.055
63.52	3.581
63.74	6.308
63.96	5.792
64.18	1.144
64.4	3.174
64.62	2.087
64.84	1.314
65.06	3.163
65.28	0.046
65.5	2.964
65.72	4.924
65.94	0.679
66.16	5.414
66.38	1.192
66.6	1.189
66.82	5.051
67.04	4.634
67.26	2.162
67.48	2.813
67.7	1.407
67.92	4.677
68.14	14.947
68.36	30.69
68.58	25.041
68.8	22.308
69.02	1.561
69.24	1.123
69.46	6.679
69.68	22.242
69.9	14.903
70.12	7.689
70.34	6.593
70.56	20.108
70.78	16.167
71	10.48
71.22	16.975
71.44	8.338
71.66	0.034
71.88	11.63
72.1	6.187
72.32	1.73
72.54	10.556
72.76	9.863
72.98	9.191
73.2	17.55
73.42	4.866
73.64	1.076
73.86	2.366
74.08	5.435
74.3	1.521
74.52	5.208
74.74	6.204
74.96	2.808
75.18	3.611
75.4	3.282
75.62	2.122
75.84	7.532
76.06	6.005
76.28	13.453
76.5	9.917
76.72	1.421
76.94	14.674
77.16	18.68
77.38	17.628
77.6	4.753
77.82	8.805
78.04	8.051
78.26	1.323
78.48	8.815
78.7	12.142
78.92	5.551
79.14	2.926
79.36	8.206
79.58	5.618
79.8	6.941
80.02	5.202
80.24	0.547
80.46	2.47
80.68	1.634
80.9	3.545
81.12	5.687
81.34	5.685
81.56	10.686
81.78	4.407
82	4.251
82.22	5.143
82.44	12.47
82.66	6.407
82.88	5.448
83.1	3.542
83.32	5.598
83.54	1.732
83.76	2.812
83.98	10.959
84.2	7.068
84.42	0.175
84.64	6.635
84.86	0.279
85.08	10.408
85.3	2.678
85.52	0.6
85.74	4.386
85.96	2.181
86.18	1.985
86.4	8.778
86.62	15.463
86.84	14.331
87.06	18.017
87.28	9.923
87.5	5.36
87.72	9.903
87.94	9.718
88.16	7.424
88.38	0.906
88.6	4.778
88.82	12.487
89.04	0.123
89.26	6.222
89.48	5.847
89.7	5.267
89.92	2.121
