Measurement: Powder, Xray Data XY Processed
Mineral: Witherite
Rruff sample: R050148
Ideal chemistry: BaCO_3_
Locality: Settlingstones mine, Fourstones, Northumberland, England
Source: Jim McGlasson
Description: Tan colored crystal fragment
Diffraction sample description: Powder
Measured chemistry: (Ba_0.96_Sr_0.04_)CO_3_
Cell parameters: a: 5.3048(3) b: 8.8854(2) c: 6.4216(4) alpha: 90. beta: 90. gamma: 90. volume: 302.68(2) crystal system: orthorhombic
x	intensity
5	0
5.22	17.203
5.44	17.845
5.66	26.593
5.88	3.191
6.1	2.311
6.32	5.711
6.54	1.36
6.76	1.043
6.98	6.475
7.2	4.959
7.42	16.313
7.64	8.688
7.86	7.889
8.08	8.643
8.3	1.357
8.52	9.203
8.74	0.079
8.96	5.918
9.18	3.756
9.4	10.723
9.62	9.255
9.84	8.987
10.06	17.019
10.28	8.179
10.5	5.478
10.72	4.789
10.94	1.983
11.16	1.403
11.38	5.653
11.6	1.873
11.82	1
12.04	3.274
12.26	6.386
12.48	2.303
12.7	4.302
12.92	0.924
13.14	2.862
13.36	3.841
13.58	3.538
13.8	6.422
14.02	5.494
14.24	2.149
14.46	3.128
14.68	0.093
14.9	4.235
15.12	2.323
15.34	3.45
15.56	9.552
15.78	1.702
16	1.143
16.22	2.863
16.44	3.157
16.66	10.337
16.88	9.572
17.1	6.702
17.32	8.6
17.54	3.622
17.76	4.655
17.98	2.602
18.2	3.541
18.42	1.436
18.64	3.303
18.86	6.03
19.08	0.872
19.3	2.631
19.52	41.761
19.74	11.753
19.96	12.736
20.18	8.865
20.4	0.898
20.62	0.958
20.84	9.125
21.06	7.263
21.28	4.547
21.5	4.698
21.72	2.36
21.94	8.13
22.16	4.92
22.38	11.67
22.6	6.314
22.82	3.033
23.04	2.691
23.26	4.301
23.48	1.954
23.7	4.479
23.92	149.292
24.14	71.713
24.36	206.614
24.58	19.787
24.8	1.869
25.02	7.077
25.24	5.321
25.46	0.789
25.68	1.274
25.9	2.788
26.12	0.002
26.34	1.005
26.56	4.072
26.78	4.141
27	4.08
27.22	6.21
27.44	5.302
27.66	20.106
27.88	61.205
28.1	11.176
28.32	0.951
28.54	0.014
28.76	2.013
28.98	1.122
29.2	0.249
29.42	0.412
29.64	23.54
29.86	2.606
30.08	2.758
30.3	5.746
30.52	0.883
30.74	6.169
30.96	1.524
31.18	2.834
31.4	4.829
31.62	4.635
31.84	4.465
32.06	4.201
32.28	3.733
32.5	2.37
32.72	1.896
32.94	0.376
33.16	1.252
33.38	4.967
33.6	1.426
33.82	42.094
34.04	21.109
34.26	72.112
34.48	131.251
34.7	109.51
34.92	11.027
35.14	4.559
35.36	3.067
35.58	10.494
35.8	2.041
36.02	1.524
36.24	2.815
36.46	5.061
36.68	0.23
36.9	7.292
37.12	7.314
37.34	1.336
37.56	0.35
37.78	9.385
38	7.478
38.22	7.646
38.44	1.524
38.66	4.434
38.88	2.234
39.1	0.904
39.32	7.94
39.54	19.674
39.76	7.627
39.98	8.46
40.2	2.638
40.42	3.506
40.64	13.104
40.86	1.072
41.08	0.738
41.3	0.433
41.52	0.614
41.74	1.182
41.96	13.997
42.18	62.663
42.4	9.888
42.62	3.574
42.84	4.484
43.06	34.376
43.28	14.301
43.5	5.269
43.72	2.208
43.94	3.158
44.16	11.184
44.38	37.263
44.6	16.549
44.82	16.217
45.04	87.558
45.26	13.818
45.48	5.895
45.7	2.01
45.92	4.11
46.14	8.253
46.36	4.347
46.58	6.37
46.8	31.414
47.02	92.457
47.24	40.614
47.46	7.192
47.68	5.901
47.9	4.983
48.12	1.953
48.34	6.3
48.56	1.377
48.78	0.612
49	13.788
49.22	5.02
49.44	6.06
49.66	7.287
49.88	9.444
50.1	7.63
50.32	11.039
50.54	2.202
50.76	5.207
50.98	0.271
51.2	1.384
51.42	0.42
51.64	2.514
51.86	2.514
52.08	0.364
52.3	2.493
52.52	2.173
52.74	10.984
52.96	4.012
53.18	4.967
53.4	0.838
53.62	7.738
53.84	8.371
54.06	7.504
54.28	1.415
54.5	4.116
54.72	14.732
54.94	24.558
55.16	5.411
55.38	1.114
55.6	6.932
55.82	31.851
56.04	10.877
56.26	5.9
56.48	20.682
56.7	5.826
56.92	0.089
57.14	0.523
57.36	17.75
57.58	5.018
57.8	2.426
58.02	0.48
58.24	5.527
58.46	2.533
58.68	5.776
58.9	5.781
59.12	7.481
59.34	10.455
59.56	7.051
59.78	3.695
60	7.374
60.22	5.96
60.44	3.744
60.66	14.539
60.88	5.52
61.1	11.28
61.32	13.231
61.54	5.406
61.76	7.342
61.98	3.668
62.2	10.012
62.42	6.425
62.64	1.926
62.86	3.488
63.08	4.859
63.3	4.143
63.52	4.464
63.74	5.72
63.96	0.878
64.18	0.003
64.4	8.137
64.62	3.305
64.84	3.297
65.06	9.217
65.28	6.093
65.5	6.133
65.72	5.06
65.94	0.211
66.16	4.21
66.38	3.019
66.6	3.997
66.82	6.749
67.04	7.332
67.26	2.922
67.48	2.471
67.7	3.9
67.92	3.336
68.14	6.83
68.36	17.246
68.58	17.76
68.8	24.299
69.02	18.935
69.24	0.198
69.46	0.91
69.68	8.048
69.9	17.104
70.12	11.268
70.34	4.5
70.56	3.711
70.78	13.813
71	16.342
71.22	25.99
71.44	17.373
71.66	4.98
71.88	0.313
72.1	9.699
72.32	1.02
72.54	3.168
72.76	2.426
72.98	6.62
73.2	4.884
73.42	10.024
73.64	1.772
73.86	4.055
74.08	8.274
74.3	3.434
74.52	0.378
74.74	4.727
74.96	6.78
75.18	2.65
75.4	2.435
75.62	2.977
75.84	3.684
76.06	2.42
76.28	12.044
76.5	9.673
76.72	3.389
76.94	5.106
77.16	14.088
77.38	13.343
77.6	12.427
77.82	5.5
78.04	6.597
78.26	2.228
78.48	2.011
78.7	5.161
78.92	4.311
79.14	11.447
79.36	2.824
79.58	6.735
79.8	9.783
80.02	11.855
80.24	5.985
80.46	0.137
80.68	1.19
80.9	1.34
81.12	8.501
81.34	8.592
81.56	5.553
81.78	0.246
82	5.367
82.22	4.227
82.44	1.198
82.66	8.212
82.88	1.134
83.1	8.18
83.32	2.893
83.54	0.998
83.76	4.01
83.98	1.075
84.2	3.057
84.42	2.052
84.64	1.202
84.86	2.166
85.08	7.369
85.3	2.482
85.52	1.574
85.74	2.517
85.96	2.285
86.18	6.092
86.4	4.857
86.62	4.625
86.84	6.245
87.06	28.002
87.28	2.897
87.5	1.405
87.72	11.258
87.94	2.09
88.16	2.119
88.38	1.245
88.6	1.47
88.82	4.463
89.04	0.733
89.26	2.75
89.48	8.175
89.7	10.882
89.92	3.169
