Measurement: Powder, Xray Data XY Processed
Mineral: Wittichenite
Rruff sample: R050327
Ideal chemistry: Cu_3_BiS_3_
Locality: Grube Daniel, Wittichen, Schwarzwald, Germany
Source: Marcus Origlieri
Description: Tin-white metallic blebs
Diffraction sample description: Powder
Measured chemistry: Cu_3.00_Bi_1.00_S_3.00_
Cell parameters: a: 7.698(1) b: 10.3875(7) c: 6.7176(7) alpha: 90. beta: 90. gamma: 90. volume: 537.2(1) crystal system: orthorhombic
x	intensity
5	0
5.22	14.4341
5.44	10.9054
5.66	14.8519
5.88	12.5145
6.1	5.47894
6.32	26.9698
6.54	13.0149
6.76	10.7641
6.98	12.3866
7.2	8.73301
7.42	12.7835
7.64	13.9811
7.86	4.24215
8.08	14.5651
8.3	13.7568
8.52	10.0303
8.74	0.071884
8.96	15.3908
9.18	4.465
9.4	1.97111
9.62	15.3559
9.84	13.3066
10.06	12.3027
10.28	6.05342
10.5	8.12542
10.72	6.98217
10.94	11.6454
11.16	0.550789
11.38	7.91195
11.6	10.7821
11.82	5.66611
12.04	0.055182
12.26	4.2884
12.48	15.6696
12.7	17.8818
12.92	10.7632
13.14	16.0049
13.36	13.3461
13.58	3.06778
13.8	14.3645
14.02	10.4625
14.24	0.482737
14.46	12.065
14.68	2.9336
14.9	17.2812
15.12	9.20601
15.34	22.709
15.56	22.6665
15.78	31.2513
16	22.8443
16.22	4.67375
16.44	11.4128
16.66	4.42732
16.88	12.7778
17.1	25.6847
17.32	5.22878
17.54	13.1738
17.76	5.58814
17.98	11.1822
18.2	7.92705
18.42	2.62017
18.64	4.32244
18.86	14.9824
19.08	0.467165
19.3	10.1613
19.52	69.8781
19.74	16.7554
19.96	7.21496
20.18	1.66604
20.4	1.30802
20.62	15.7055
20.84	10.9493
21.06	6.24027
21.28	12.3695
21.5	12.3143
21.72	14.6995
21.94	8.38635
22.16	0.014881
22.38	13.5518
22.6	8.15437
22.82	0.312565
23.04	23.8908
23.26	24.0162
23.48	15.0552
23.7	1.21294
23.92	29.4474
24.14	3.52533
24.36	0.344894
24.58	8.61763
24.8	9.27219
25.02	7.03243
25.24	4.15542
25.46	12.6108
25.68	7.19953
25.9	16.319
26.12	4.90353
26.34	3.9116
26.56	24.8819
26.78	35.7439
27	15.0394
27.22	13.7617
27.44	22.7596
27.66	22.5013
27.88	21.2453
28.1	72.0461
28.32	17.6369
28.54	1.767
28.76	26.5736
28.98	62.7066
29.2	38.0583
29.42	24.8192
29.64	2.21054
29.86	5.65991
30.08	32.1636
30.3	38.1937
30.52	24.3756
30.74	15.4477
30.96	21.1294
31.18	27.9656
31.4	116.853
31.62	19.7233
31.84	38.7546
32.06	11.6329
32.28	1.49705
32.5	3.04313
32.72	15.0538
32.94	0.958206
33.16	26.0343
33.38	2.11167
33.6	7.5312
33.82	29.2505
34.04	30.9606
34.26	13.0161
34.48	12.7022
34.7	10.0887
34.92	31.6729
35.14	4.64595
35.36	4.1726
35.58	15.5466
35.8	2.97688
36.02	7.55167
36.24	15.8409
36.46	13.8101
36.68	3.64872
36.9	13.278
37.12	19.0917
37.34	14.9446
37.56	27.3649
37.78	11.3214
38	15.1203
38.22	8.0159
38.44	11.3993
38.66	8.56901
38.88	4.37937
39.1	21.0763
39.32	17.0054
39.54	0.94051
39.76	7.73243
39.98	6.10263
40.2	22.2324
40.42	7.24787
40.64	4.61102
40.86	6.09941
41.08	0.10906
41.3	5.32012
41.52	24.0333
41.74	6.74744
41.96	15.0407
42.18	10.1542
42.4	7.06422
42.62	5.71887
42.84	15.9774
43.06	23.2353
43.28	6.79213
43.5	0.432041
43.72	0.991051
43.94	3.34523
44.16	24.9693
44.38	17.5958
44.6	10.1582
44.82	10.6586
45.04	9.89518
45.26	20.5773
45.48	20.9839
45.7	22.9727
45.92	19.1004
46.14	16.989
46.36	9.71674
46.58	3.19462
46.8	20.5792
47.02	9.35289
47.24	19.1992
47.46	17.439
47.68	0.17057
47.9	29.9221
48.12	24.9351
48.34	8.10378
48.56	5.08311
48.78	8.01316
49	7.34649
49.22	12.742
49.44	8.88794
49.66	7.30345
49.88	22.9254
50.1	37.8615
50.32	34.2191
50.54	14.1469
50.76	1.71699
50.98	3.64767
51.2	20.4734
51.42	7.20061
51.64	14.9997
51.86	20.7982
52.08	36.6826
52.3	21.826
52.52	10.3133
52.74	22.6943
52.96	16.8785
53.18	10.1417
53.4	9.51623
53.62	14.9869
53.84	9.52067
54.06	9.79796
54.28	11.6838
54.5	37.8595
54.72	28.6806
54.94	13.239
55.16	14.6506
55.38	9.09946
55.6	0.653683
55.82	5.75241
56.04	6.813
56.26	12.9589
56.48	7.11293
56.7	9.82969
56.92	7.25784
57.14	17.4607
57.36	12.5377
57.58	8.10436
57.8	20.3708
58.02	17.0811
58.24	8.25764
58.46	15.4858
58.68	8.57204
58.9	6.60428
59.12	13.3379
59.34	10.2598
59.56	9.55624
59.78	24.5066
60	6.24547
60.22	19.0334
60.44	4.31661
60.66	4.10681
60.88	9.14119
61.1	4.14971
61.32	8.99884
61.54	24.8423
61.76	5.01896
61.98	7.50654
62.2	6.52028
62.42	8.71532
62.64	13.0901
62.86	25.2912
63.08	4.04998
63.3	1.2965
63.52	16.4443
63.74	12.2624
63.96	21.2319
64.18	15.7434
64.4	4.5876
64.62	16.256
64.84	19.0101
65.06	2.53111
65.28	12.1803
65.5	21.5079
65.72	3.45464
65.94	10.6191
66.16	4.50129
66.38	6.27515
66.6	3.56078
66.82	11.7997
67.04	12.0232
67.26	3.61047
67.48	16.8651
67.7	11.3333
67.92	0.341238
68.14	16.5755
68.36	11.7292
68.58	2.42703
68.8	9.87121
69.02	8.13716
69.24	19.5569
69.46	20.6184
69.68	7.57547
69.9	1.78083
70.12	5.09921
70.34	7.27339
70.56	5.27006
70.78	1.32948
71	8.52624
71.22	2.4101
71.44	10.6554
71.66	13.5425
71.88	13.0301
72.1	7.10532
72.32	14.1828
72.54	0.833117
72.76	17.6074
72.98	21.6146
73.2	1.94817
73.42	16.5492
73.64	14.5931
73.86	6.13824
74.08	3.82282
74.3	8.71431
74.52	10.8134
74.74	6.54266
74.96	15.4754
75.18	10.2918
75.4	0.131277
75.62	8.7476
75.84	11.9838
76.06	1.4784
76.28	6.69379
76.5	0.864666
76.72	0.145359
76.94	8.07606
77.16	9.06527
77.38	12.0781
77.6	14.0286
77.82	21.2239
78.04	23.744
78.26	12.668
78.48	3.76848
78.7	6.40393
78.92	14.2544
79.14	14.352
79.36	12.0708
79.58	10.8436
79.8	17.7251
80.02	6.69556
80.24	19.7094
80.46	13.9249
80.68	8.78537
80.9	21.8811
81.12	3.14028
81.34	0.522249
81.56	9.55372
81.78	5.23037
82	11.4626
82.22	8.12395
82.44	7.35791
82.66	5.74233
82.88	17.0255
83.1	7.10953
83.32	16.4337
83.54	15.7852
83.76	16.6049
83.98	16.8772
84.2	11.6929
84.42	9.75393
84.64	6.39256
84.86	12.8862
85.08	13.5359
85.3	14.73
85.52	10.9934
85.74	2.98632
85.96	6.67459
86.18	10.9758
86.4	3.23592
86.62	0.28735
86.84	2.75095
87.06	12.7955
87.28	14.6656
87.5	9.04739
87.72	2.13883
87.94	5.09982
88.16	11.4277
88.38	2.953
88.6	8.89414
88.82	7.89832
89.04	2.46099
89.26	8.4956
89.48	11.484
89.7	13.9896
89.92	9.50181
