Measurement: Powder, Xray Data XY Processed
Mineral: Wohlerite
Rruff sample: R050275
Ideal chemistry: NaCa_2_(Zr^4+^,Nb^5+^)(Si_2_O_7_)(O,F)_2_
Locality: Langesundsfjord, Norway
Source: Marcus Origlieri
Description: Yellowish brown granular
Diffraction sample description: Powder
Cell parameters: a: 10.8248(7) b: 10.2481(6) c: 7.2903(5) alpha: 90 beta: 109.003(5) gamma: 90 volume: 764.66(6) crystal system: monoclinic
x	intensity
5	0
5.22	1.62041
5.44	2.64743
5.66	8.69084
5.88	0.534979
6.1	2.82912
6.32	15.1221
6.54	3.31777
6.76	5.86429
6.98	8.37432
7.2	12.8302
7.42	5.22333
7.64	7.41537
7.86	3.04656
8.08	5.53912
8.3	0.767503
8.52	5.06989
8.74	6.21351
8.96	3.44669
9.18	5.33075
9.4	5.47465
9.62	2.53337
9.84	4.9155
10.06	7.17699
10.28	1.13857
10.5	0.795334
10.72	7.1822
10.94	3.09832
11.16	7.82013
11.38	0.710995
11.6	15.6012
11.82	1.72277
12.04	7.13862
12.26	131.918
12.48	5.68539
12.7	4.36634
12.92	43.3021
13.14	8.50696
13.36	5.57916
13.58	0.877751
13.8	8.10345
14.02	9.63531
14.24	11.8209
14.46	4.95578
14.68	2.92617
14.9	6.04204
15.12	0.1161
15.34	9.2478
15.56	34.3419
15.78	7.66507
16	7.16556
16.22	7.96574
16.44	6.70379
16.66	5.6377
16.88	4.59153
17.1	3.53829
17.32	58.5251
17.54	5.857
17.76	70.7034
17.98	11.779
18.2	4.57392
18.42	1.67773
18.64	7.79951
18.86	4.86438
19.08	2.04078
19.3	5.61636
19.52	21.7843
19.74	92.9728
19.96	14.7439
20.18	2.09539
20.4	2.9329
20.62	3.93881
20.84	7.90907
21.06	7.90588
21.28	0.907596
21.5	7.6911
21.72	92.5771
21.94	8.48248
22.16	6.80319
22.38	5.86802
22.6	0.925559
22.82	6.73685
23.04	4.69468
23.26	3.84909
23.48	7.75347
23.7	3.63414
23.92	14.4982
24.14	6.12883
24.36	4.28177
24.58	14.8781
24.8	24.8301
25.02	46.2649
25.24	8.29378
25.46	5.22531
25.68	4.10523
25.9	12.9171
26.12	10.0106
26.34	23.8553
26.56	15.7075
26.78	1.37332
27	8.21784
27.22	2.8126
27.44	33.0307
27.66	79.6622
27.88	10.1457
28.1	10.8662
28.32	4.66631
28.54	6.23032
28.76	8.02369
28.98	0.351693
29.2	61.949
29.42	6.32498
29.64	6.31592
29.86	43.1275
30.08	51.7365
30.3	521.948
30.52	14.7497
30.74	4.84261
30.96	7.15469
31.18	20.4121
31.4	51.8157
31.62	216.971
31.84	47.0815
32.06	12.1355
32.28	0.510548
32.5	3.366
32.72	11.2065
32.94	9.03555
33.16	1.47629
33.38	7.66787
33.6	6.77647
33.82	3.74281
34.04	4.06884
34.26	4.77632
34.48	4.68692
34.7	3.48124
34.92	4.09411
35.14	22.6143
35.36	9.01938
35.58	3.01914
35.8	11.1302
36.02	52.184
36.24	27.2725
36.46	5.52549
36.68	2.62537
36.9	9.25136
37.12	28.0064
37.34	43.4841
37.56	17.2911
37.78	9.72386
38	5.76343
38.22	7.88009
38.44	8.02082
38.66	4.29603
38.88	9.36227
39.1	3.2109
39.32	29.4593
39.54	5.17731
39.76	4.26964
39.98	4.94615
40.2	20.8704
40.42	9.80831
40.64	11.1525
40.86	10.6439
41.08	3.08207
41.3	4.22491
41.52	8.33432
41.74	3.40636
41.96	6.24543
42.18	0.216902
42.4	4.239
42.62	2.95827
42.84	0.39431
43.06	6.50386
43.28	8.62412
43.5	9.89042
43.72	7.48176
43.94	12.111
44.16	63.7976
44.38	7.93593
44.6	3.71476
44.82	31.2235
45.04	27.1876
45.26	69.3384
45.48	4.55839
45.7	4.7511
45.92	2.44854
46.14	5.44184
46.36	14.8741
46.58	9.1326
46.8	12.8632
47.02	0.691263
47.24	7.24575
47.46	8.55606
47.68	3.94946
47.9	4.33044
48.12	6.27879
48.34	8.3292
48.56	10.5397
48.78	5.12202
49	15.6888
49.22	3.41488
49.44	5.13523
49.66	9.22389
49.88	13.5458
50.1	48.6391
50.32	10.0674
50.54	2.82922
50.76	5.57893
50.98	67.2334
51.2	11.1724
51.42	48.6797
51.64	16.0824
51.86	23.4242
52.08	19.9641
52.3	7.0157
52.52	6.48492
52.74	1.89502
52.96	5.25437
53.18	0.405396
53.4	3.86587
53.62	2.00691
53.84	7.69872
54.06	11.8219
54.28	38.0466
54.5	57.6337
54.72	64.1946
54.94	4.75728
55.16	7.76105
55.38	4.21383
55.6	5.99623
55.82	6.90322
56.04	5.82798
56.26	0.674488
56.48	3.70052
56.7	5.90845
56.92	1.66173
57.14	7.49214
57.36	0.072582
57.58	6.96934
57.8	7.85642
58.02	14.9861
58.24	23.3621
58.46	32.9633
58.68	3.30107
58.9	6.33337
59.12	8.46404
59.34	3.58733
59.56	14.6781
59.78	0.28274
60	15.7294
60.22	16.7734
60.44	38.2079
60.66	59.1463
60.88	12.1439
61.1	9.15462
61.32	1.37999
61.54	5.53025
61.76	5.90161
61.98	0.025807
62.2	11.247
62.42	8.40509
62.64	16.3578
62.86	7.28301
63.08	4.26374
63.3	5.87321
63.52	7.87043
63.74	3.90768
63.96	4.12137
64.18	1.26192
64.4	15.2185
64.62	7.49062
64.84	0.4245
65.06	11.4134
65.28	5.043
65.5	7.05263
65.72	8.05611
65.94	8.10554
66.16	5.00252
66.38	25.3861
66.6	23.3359
66.82	7.42064
67.04	16.4737
67.26	10.6377
67.48	2.16262
67.7	4.05349
67.92	2.95275
68.14	6.81585
68.36	6.57585
68.58	5.40421
68.8	0.638412
69.02	11.1666
69.24	10.9515
69.46	11.8774
69.68	15.1267
69.9	25.9586
70.12	5.87722
70.34	5.13622
70.56	0.63592
70.78	3.71575
71	1.93508
71.22	3.33809
71.44	6.99421
71.66	3.17456
71.88	9.12672
72.1	12.3167
72.32	3.54205
72.54	0.748322
72.76	0.166828
72.98	3.75712
73.2	6.26073
73.42	5.54525
73.64	4.40351
73.86	11.0124
74.08	7.90277
74.3	1.75013
74.52	0.681822
74.74	8.76607
74.96	4.80885
75.18	7.62683
75.4	7.51155
75.62	6.2253
75.84	3.94828
76.06	3.92461
76.28	1.90329
76.5	2.06142
76.72	4.56592
76.94	10.5237
77.16	12.4858
77.38	4.42948
77.6	5.49486
77.82	5.5468
78.04	3.61728
78.26	0.299132
78.48	5.66523
78.7	16.4531
78.92	1.37502
79.14	0.211381
79.36	12.643
79.58	4.43827
79.8	5.73009
80.02	14.4826
80.24	7.36294
80.46	0.751979
80.68	9.04496
80.9	4.94996
81.12	11.1027
81.34	3.05051
81.56	12.037
81.78	13.9374
82	17.9647
82.22	4.72236
82.44	0.970088
82.66	2.23472
82.88	8.66911
83.1	2.05789
83.32	3.17858
83.54	8.06512
83.76	10.4428
83.98	0.449151
84.2	7.44569
84.42	7.15302
84.64	13.9774
84.86	11.7194
85.08	9.32569
85.3	11.7138
85.52	18.204
85.74	10.252
85.96	2.95979
86.18	19.6555
86.4	4.78632
86.62	1.85816
86.84	6.97574
87.06	7.97489
87.28	4.23398
87.5	0.38085
87.72	3.08819
87.94	4.50203
88.16	6.23431
88.38	8.54907
88.6	5.55968
88.82	9.2553
89.04	4.64485
89.26	2.01209
89.48	12.9129
89.7	5.3788
89.92	3.0184
