Measurement: Powder, Xray Data XY Processed
Mineral: Wolfeite
Rruff sample: R050614
Ideal chemistry: Fe^2+^_2_PO_4_(OH)
Locality: Hagendorf, Bavaria
Source: University of Arizona Mineral Museum
Description: Reddish-brown elongated prismatic crystals
Diffraction sample description: Powder
Measured chemistry: (Fe^2+^_1.49_Mn^2+^_0.49_Mg_0.02_)_Î£=2_(P_1.00_O_4_)(OH)
Cell parameters: a: 12.297(2) b: 13.211(3) c: 9.798(3) alpha: 90 beta: 108.47(3) gamma: 90 volume: 1509.9(4) crystal system: monoclinic
x	intensity
5	0
5.22	20.443
5.44	15.629
5.66	14.755
5.88	2.944
6.1	2.066
6.32	28.764
6.54	10.53
6.76	31.773
6.98	17.309
7.2	25.798
7.42	32.1
7.64	39.566
7.86	10.727
8.08	26.418
8.3	35.512
8.52	28.04
8.74	8.123
8.96	14.78
9.18	18.988
9.4	45.37
9.62	30.647
9.84	27.248
10.06	17.149
10.28	19.549
10.5	1.428
10.72	16.74
10.94	21.122
11.16	17.456
11.38	32.655
11.6	35.462
11.82	31.664
12.04	22.64
12.26	27.101
12.48	46.468
12.7	32.286
12.92	14.219
13.14	9.696
13.36	41.589
13.58	23.634
13.8	7.593
14.02	2.135
14.24	2.834
14.46	4.743
14.68	14.875
14.9	6.087
15.12	12.098
15.34	7.486
15.56	17.763
15.78	2.986
16	0.27
16.22	18.719
16.44	17.888
16.66	16.442
16.88	6.199
17.1	7.318
17.32	13.997
17.54	20.191
17.76	9.855
17.98	29.07
18.2	18.913
18.42	16.138
18.64	25.044
18.86	35.837
19.08	25.292
19.3	9.693
19.52	13.842
19.74	25.007
19.96	15.456
20.18	16.851
20.4	26.243
20.62	28.048
20.84	15.888
21.06	21.756
21.28	22.457
21.5	13.575
21.72	8.055
21.94	26.769
22.16	23.289
22.38	18.609
22.6	30.232
22.82	40.732
23.04	17.23
23.26	6.755
23.48	0.605
23.7	18.47
23.92	8.29
24.14	10.764
24.36	7.276
24.58	21.411
24.8	9.763
25.02	18.745
25.24	1.512
25.46	14.818
25.68	26.053
25.9	13.58
26.12	2.401
26.34	21.495
26.56	57.348
26.78	7.02
27	27.461
27.22	17.72
27.44	30.561
27.66	1.097
27.88	17.768
28.1	119.666
28.32	26.416
28.54	0.576
28.76	24.906
28.98	81.924
29.2	41.325
29.42	15.014
29.64	7.299
29.86	0.919
30.08	23.554
30.3	4.599
30.52	21.674
30.74	26.409
30.96	15.543
31.18	22.139
31.4	7.584
31.62	24.389
31.84	21.315
32.06	21.052
32.28	29.134
32.5	7.163
32.72	3.705
32.94	20.956
33.16	27.365
33.38	29.059
33.6	37.867
33.82	17.713
34.04	7.941
34.26	15.002
34.48	8.624
34.7	3.114
34.92	34.579
35.14	22.81
35.36	29.622
35.58	12.363
35.8	0.703
36.02	17.278
36.24	22.027
36.46	34.977
36.68	19.235
36.9	21.13
37.12	24.915
37.34	9.751
37.56	20.177
37.78	15.421
38	23.552
38.22	8.916
38.44	18.942
38.66	21.154
38.88	14.76
39.1	0.563
39.32	24.987
39.54	57.476
39.76	26.138
39.98	19.922
40.2	13.495
40.42	29.525
40.64	18.357
40.86	7.84
41.08	24.581
41.3	32.897
41.52	21.191
41.74	20.702
41.96	22.749
42.18	58.44
42.4	24.579
42.62	13.651
42.84	4.016
43.06	0.144
43.28	7.628
43.5	19.034
43.72	7.969
43.94	19.338
44.16	18.218
44.38	19.234
44.6	18.235
44.82	8.971
45.04	18.816
45.26	37.046
45.48	21.842
45.7	18.726
45.92	8.346
46.14	26.906
46.36	10.138
46.58	33.884
46.8	13.124
47.02	28.092
47.24	24.082
47.46	15.559
47.68	20.885
47.9	14.969
48.12	14.802
48.34	10.366
48.56	1.999
48.78	11.373
49	9.672
49.22	13.306
49.44	20.637
49.66	7.342
49.88	22.326
50.1	14.337
50.32	4.048
50.54	3.052
50.76	25.868
50.98	43.042
51.2	14.985
51.42	12.857
51.64	21.027
51.86	29.32
52.08	38.588
52.3	20.801
52.52	10.129
52.74	29.216
52.96	18.012
53.18	35.919
53.4	21.752
53.62	15.169
53.84	21.156
54.06	33.301
54.28	7.911
54.5	13.018
54.72	17.629
54.94	1.641
55.16	26.495
55.38	0.661
55.6	3.036
55.82	12.779
56.04	12.533
56.26	12.427
56.48	13.811
56.7	20.673
56.92	23.183
57.14	18.03
57.36	38.723
57.58	16.5
57.8	9.921
58.02	36.859
58.24	23.368
58.46	18.378
58.68	24.51
58.9	20.488
59.12	24.731
59.34	35.857
59.56	7.366
59.78	39.255
60	40.15
60.22	43.897
60.44	12.739
60.66	14.302
60.88	8.769
61.1	20.328
61.32	17.373
61.54	27.691
61.76	27.005
61.98	14.445
62.2	15.55
62.42	15.591
62.64	13.493
62.86	13.832
63.08	13.591
63.3	13.717
63.52	28.295
63.74	39.914
63.96	10.417
64.18	24.172
64.4	7.673
64.62	9.769
64.84	12.529
65.06	31.514
65.28	29.694
65.5	24.295
65.72	26.893
65.94	16.759
66.16	19.099
66.38	15.272
66.6	10.3
66.82	1.978
67.04	29.406
67.26	31.996
67.48	16.22
67.7	15.577
67.92	10.358
68.14	41
68.36	8.102
68.58	6.15
68.8	4.093
69.02	18.371
69.24	8.493
69.46	0.107
69.68	29.817
69.9	21.162
70.12	8.466
70.34	16.565
70.56	13.627
70.78	9.082
71	22.908
71.22	14.215
71.44	16.424
71.66	28.631
71.88	3.011
72.1	34.751
72.32	21.301
72.54	13.522
72.76	24.885
72.98	23.83
73.2	28.033
73.42	17.151
73.64	15.914
73.86	27.369
74.08	9.522
74.3	5.267
74.52	25.553
74.74	20.771
74.96	32.471
75.18	18.26
75.4	1.551
75.62	26.863
75.84	14.857
76.06	40.809
76.28	22.76
76.5	24.619
76.72	7.866
76.94	11.879
77.16	16.089
77.38	32.563
77.6	11.594
77.82	14.698
78.04	27.419
78.26	1.231
78.48	17.603
78.7	13.671
78.92	16.188
79.14	11.423
79.36	26.979
79.58	25.436
79.8	11.832
80.02	6.76
80.24	10.454
80.46	23.763
80.68	9.778
80.9	19.633
81.12	16.169
81.34	22.926
81.56	3.228
81.78	16.668
82	15.765
82.22	36.403
82.44	31.42
82.66	17.542
82.88	9.224
83.1	10.849
83.32	21.167
83.54	14.46
83.76	0.927
83.98	28.92
84.2	24.257
84.42	12.213
84.64	16.323
84.86	26.168
85.08	27.766
85.3	28.645
85.52	19.691
85.74	25.477
85.96	33.763
86.18	7.12
86.4	15.99
86.62	13.081
86.84	19.557
87.06	6.682
87.28	9.75
87.5	31.588
87.72	5.861
87.94	14.003
88.16	35.308
88.38	21.644
88.6	28.385
88.82	10.052
89.04	16.219
89.26	18.348
89.48	29.691
89.7	4.024
89.92	14.588
