Measurement: Powder, Xray Data XY Processed
Mineral: Wollastonite
Rruff sample: R040008
Ideal chemistry: CaSiO_3_
Locality: Lake Baikal, Siberia, Russia
Source: University of Arizona Mineral Museum
Description: 2M polytype. Colorless parallel acicular crystals
Diffraction sample description: Powder
Measured chemistry: Ca_1.00_Si_1.00_O_3_; trace amounts of Fe and Mn
Cell parameters: a: 15.4141(8) b: 7.317(1) c: 7.0649(5) alpha: 90. beta: 95.389(5) gamma: 90. volume: 793.3(1) crystal system: monoclinic
x	intensity
5	0
5.22	12.225
5.44	17.842
5.66	13.091
5.88	6.777
6.1	17.477
6.32	5.417
6.54	2.136
6.76	9.77
6.98	1.464
7.2	11.194
7.42	0.666
7.64	8.017
7.86	6.561
8.08	1.23
8.3	2.762
8.52	7.543
8.74	7.886
8.96	9.648
9.18	5.027
9.4	2.779
9.62	1.854
9.84	2.176
10.06	6.429
10.28	10.513
10.5	2.44
10.72	1.438
10.94	0.378
11.16	1.254
11.38	9.686
11.6	188.656
11.82	0.185
12.04	0.069
12.26	3.967
12.48	9.313
12.7	2.545
12.92	0.126
13.14	9.411
13.36	5.67
13.58	1.993
13.8	2.305
14.02	4.875
14.24	7.091
14.46	6.374
14.68	9.611
14.9	1.446
15.12	3.436
15.34	4.299
15.56	2.964
15.78	4.856
16	1.767
16.22	7.731
16.44	4.274
16.66	8.338
16.88	9.405
17.1	0.493
17.32	0.369
17.55	10.652
17.77	4.798
17.99	8.959
18.21	4.062
18.43	2.502
18.65	9.577
18.87	7.83
19.09	2.618
19.31	11.617
19.53	0.691
19.75	1.801
19.97	9.748
20.19	0.686
20.41	7.751
20.63	5.611
20.85	9.295
21.07	6.108
21.29	7.253
21.51	7.054
21.73	3.833
21.95	8.357
22.17	8.891
22.39	0.756
22.61	3.614
22.83	7.34
23.05	10.114
23.27	369.719
23.49	8.087
23.71	3.879
23.93	15.102
24.15	3.093
24.37	8.112
24.59	7.067
24.81	8.854
25.03	6.844
25.25	18.536
25.47	71.47
25.69	11.57
25.91	1.746
26.13	6.322
26.35	1.073
26.57	4.058
26.79	22.497
27.01	140.141
27.23	3.865
27.45	4.615
27.67	3.549
27.89	5.879
28.11	17.544
28.33	21.14
28.55	1.72
28.77	5.216
28.99	143.699
29.21	8.977
29.43	62.116
29.65	10.81
29.87	28.384
30.09	161.133
30.31	10.865
30.53	8.446
30.75	15.175
30.97	1.159
31.19	4.547
31.41	2.083
31.63	6.788
31.85	8.153
32.07	14.044
32.29	5.86
32.51	7.878
32.73	0.038
32.95	54.498
33.17	2.92
33.39	9.408
33.61	7.502
33.83	1.731
34.05	3.567
34.27	1.583
34.49	5.523
34.71	6.464
34.93	6.275
35.15	66.144
35.37	13.806
35.59	12.519
35.81	5.546
36.03	17.827
36.25	54.001
36.47	17.543
36.69	3.649
36.91	0.059
37.13	5.877
37.35	8.851
37.57	1.221
37.79	9.658
38.01	3.483
38.23	20.063
38.45	28.573
38.67	25.43
38.89	19.357
39.11	117.584
39.33	4.409
39.55	11.368
39.77	2.399
39.99	1.464
40.21	7.494
40.43	3.506
40.65	0.56
40.87	9.948
41.09	7.871
41.31	26.685
41.53	9.583
41.75	23.779
41.97	2.009
42.19	7.127
42.41	3.294
42.63	4.559
42.85	0.771
43.07	0.842
43.29	20.055
43.51	2.196
43.73	3.739
43.95	5.685
44.17	10.367
44.39	4.434
44.61	4.339
44.83	17.092
45.05	3.956
45.27	6.967
45.49	4.16
45.71	7.907
45.93	18.681
46.15	0.521
46.37	9.343
46.59	4.235
46.81	0.858
47.03	1.805
47.25	17.504
47.47	22.167
47.69	16.677
47.91	2.841
48.13	3.454
48.35	15.614
48.57	13.534
48.79	5.393
49.01	7.151
49.23	15.164
49.45	3.702
49.67	7.504
49.89	11.646
50.11	4.013
50.33	11.25
50.55	9.964
50.77	7.797
50.99	13.966
51.21	10.149
51.43	1.373
51.65	12.451
51.87	15.453
52.09	29.529
52.31	18.612
52.53	2.552
52.75	2.648
52.97	4.396
53.19	43.695
53.41	27.129
53.63	7.689
53.85	3.829
54.07	4.997
54.29	3.268
54.51	0.498
54.73	0.792
54.95	2.028
55.17	10.205
55.39	16.297
55.61	6.983
55.83	1.908
56.05	0.585
56.27	4.493
56.49	5.493
56.71	2.504
56.93	2.654
57.15	6.907
57.37	33.309
57.59	25.509
57.81	0.643
58.03	6.579
58.25	9.36
58.47	1.166
58.69	2.858
58.91	3.497
59.13	4.024
59.35	4.443
59.57	89.869
59.79	21.193
60.01	4.75
60.23	8.297
60.45	19.524
60.67	14.09
60.89	4.822
61.11	10.442
61.33	0.924
61.55	3.291
61.77	4.579
61.99	4.758
62.21	3.805
62.43	3.837
62.65	4.825
62.87	10.473
63.09	7.896
63.31	9.626
63.53	2.665
63.75	28.817
63.97	16.84
64.19	11.949
64.41	6.207
64.63	2.572
64.85	2.294
65.07	14.099
65.29	7.424
65.51	0.585
65.73	3.681
65.95	2.626
66.17	2.498
66.39	11.569
66.61	1.662
66.83	1.199
67.05	8.977
67.27	2.898
67.49	8.666
67.71	2.461
67.93	3.365
68.15	2.028
68.37	5.981
68.59	8.184
68.81	9.187
69.03	31
69.25	8.722
69.47	5.812
69.69	2.062
69.91	8.334
70.13	5.453
70.35	7.643
70.57	1.924
70.79	2.916
71.01	3.144
71.23	2.458
71.45	4.545
71.67	3.722
71.89	3.667
72.11	5.584
72.33	2.44
72.55	4.375
72.77	5.233
72.99	0.01
73.21	1.89
73.43	2.504
73.65	8.507
73.87	12.477
74.09	21.349
74.31	14.309
74.53	5.318
74.75	0.584
74.97	9.892
75.19	2.075
75.41	9.245
75.63	2.481
75.85	1.383
76.07	7.498
76.29	7.704
76.51	2.934
76.73	6.93
76.95	9.848
77.17	9.509
77.39	1.551
77.61	6.424
77.83	5.308
78.05	2.145
78.27	5.147
78.49	1.173
78.71	6.115
78.93	16.965
79.15	9.046
79.37	7.471
79.59	0.424
79.81	6.565
80.03	2.649
80.25	1.866
80.47	2.996
80.69	8.916
80.91	1.273
81.13	7.598
81.35	4.566
81.57	4.474
81.79	8.279
82.01	8.132
82.23	13.123
82.45	7.24
82.67	4.025
82.89	2.882
83.11	7.853
83.33	1.067
83.55	5.908
83.77	3.854
83.99	5.715
84.21	4.645
84.43	4.785
84.65	5.597
84.87	10.681
85.09	7.826
85.31	6.042
85.53	12.159
85.75	0.155
85.97	6.238
86.19	0.394
86.41	5.434
86.63	4.256
86.85	6.057
87.07	0.807
87.29	2.405
87.51	4.076
87.73	3.935
87.95	3.594
88.17	5.35
88.39	9.998
88.61	7.542
88.83	1.334
89.05	5.128
89.27	1.13
89.49	6.648
89.71	12.46
89.93	10.635
