Measurement: Powder, Xray Data XY Processed
Mineral: Wollastonite
Rruff sample: R040131
Ideal chemistry: CaSiO_3_
Locality: In-Ne-Koh-Pah Gorge, Jacumba, San Diego County, California, USA
Source: University of Arizona Mineral Museum
Description: White coarsely crystalline massive
Diffraction sample description: Powder
Measured chemistry: Ca_1.01_Si_1.00_O_3_
Cell parameters: a: 10.137(2) b: 11.092(1) c: 7.3249(6) alpha: 99.51(3) beta: 100.61(4) gamma: 83.364(9) volume: 795.42(9) crystal system: triclinic
x	intensity
5	0
5.22	4.45092
5.44	13.0529
5.66	14.2978
5.88	9.94662
6.1	8.34891
6.32	15.8958
6.54	14.0305
6.76	2.94522
6.98	10.8451
7.2	6.78888
7.42	8.55242
7.64	12.4754
7.86	0.947216
8.08	3.69074
8.3	5.87788
8.52	12.8271
8.74	1.65539
8.96	14.3075
9.18	5.33242
9.4	4.27471
9.62	1.16673
9.84	10.2413
10.06	3.12649
10.28	6.06335
10.5	0.146087
10.72	3.72311
10.94	5.93282
11.16	12.4624
11.38	2.39808
11.6	73.4382
11.82	15.5118
12.04	1.30625
12.26	8.85823
12.48	11.4077
12.7	4.82876
12.92	2.23568
13.14	6.55582
13.36	2.0938
13.58	4.22451
13.8	7.51632
14.02	3.65136
14.24	2.72512
14.46	13.9978
14.68	2.86464
14.9	1.3385
15.12	9.09506
15.34	4.89352
15.56	5.74259
15.78	1.46051
16	6.40011
16.22	7.5049
16.44	6.52756
16.66	1.67868
16.88	3.44338
17.1	8.46471
17.32	1.72035
17.54	2.89749
17.76	11.888
17.98	7.97889
18.2	5.05124
18.42	2.09244
18.64	7.11559
18.86	1.28531
19.08	7.30999
19.3	14.4817
19.52	8.55621
19.74	3.51277
19.96	3.67481
20.18	0.140348
20.4	8.12562
20.62	9.10317
20.84	9.96655
21.06	6.62204
21.28	0.72556
21.5	0.299717
21.72	0.385561
21.94	15.4116
22.16	25.1115
22.38	6.70311
22.6	5.25459
22.82	9.75421
23.04	27.6602
23.26	138.72
23.48	11.6909
23.7	10.3281
23.92	1.93465
24.14	1.50442
24.36	2.34248
24.58	0.122221
24.8	2.84789
25.02	12.6905
25.24	24.8928
25.46	59.0724
25.68	7.49662
25.9	4.00565
26.12	2.58926
26.34	3.33718
26.56	6.16264
26.78	29.2348
27	114.895
27.22	9.98844
27.44	14.6355
27.66	7.59677
27.88	2.54552
28.1	7.92264
28.32	4.31883
28.54	0.687386
28.76	13.1394
28.98	94.6439
29.2	11.04
29.42	29.0476
29.64	7.77694
29.86	45.9956
30.08	236.542
30.3	31.9259
30.52	13.0831
30.74	15.2231
30.96	0.651652
31.18	0.43364
31.4	0.355324
31.62	1.51748
31.84	12.2379
32.06	7.86494
32.28	4.37244
32.5	5.89691
32.72	3.95159
32.94	39.4578
33.16	3.94935
33.38	0.970387
33.6	4.83057
33.82	5.76217
34.04	3.5985
34.26	4.45694
34.48	8.19706
34.7	8.86871
34.92	21.6846
35.14	36.0206
35.36	11.311
35.58	11.128
35.8	6.33538
36.02	11.6991
36.24	47.9627
36.46	20.4844
36.68	0.456502
36.9	2.24558
37.12	1.21802
37.34	1.74827
37.56	2.66531
37.78	1.63333
38	6.4006
38.22	23.9466
38.44	37.4364
38.66	22.067
38.88	1.17308
39.1	109.241
39.32	17.2412
39.54	11.5854
39.76	2.72105
39.98	0.924414
40.2	2.98668
40.42	1.15073
40.64	14.3539
40.86	13.9177
41.08	7.25765
41.3	51.7744
41.52	12.9608
41.74	17.3884
41.96	1.70004
42.18	1.57701
42.4	5.50804
42.62	5.84866
42.84	0.164111
43.06	2.49611
43.28	20.2245
43.5	7.03764
43.72	2.99769
43.94	3.1117
44.16	1.63991
44.38	8.52184
44.6	5.41408
44.82	21.4447
45.04	6.53986
45.26	4.44949
45.48	6.15015
45.7	18.9414
45.92	9.9422
46.14	0.206965
46.36	3.53151
46.58	3.32474
46.8	9.2891
47.02	1.98464
47.24	5.47823
47.46	14.6934
47.68	0.686434
47.9	1.94048
48.12	10.5803
48.34	28.3479
48.56	12.0956
48.78	3.07245
49	12.6394
49.22	19.9179
49.44	1.91715
49.66	8.99538
49.88	26.0427
50.1	4.18395
50.32	1.65766
50.54	3.87367
50.76	4.8223
50.98	8.02759
51.2	2.23753
51.42	5.47718
51.64	10.4278
51.86	4.72935
52.08	23.9185
52.3	11.0267
52.52	7.09006
52.74	0.988029
52.96	12.4491
53.18	35.7565
53.4	43.342
53.62	4.63046
53.84	5.61377
54.06	3.15098
54.28	8.00969
54.5	3.25403
54.72	4.80661
54.94	3.08514
55.16	0.670326
55.38	18.4377
55.6	7.21392
55.82	2.18954
56.04	5.19444
56.26	3.14758
56.48	3.04462
56.7	10.0615
56.92	3.10479
57.14	5.92648
57.36	21.2263
57.58	15.0036
57.8	6.02148
58.02	2.90481
58.24	5.05779
58.46	14.8534
58.68	6.5901
58.9	4.34223
59.12	4.00771
59.34	0.711586
59.56	15.1092
59.78	2.79184
60	14.7682
60.22	28.5987
60.44	6.08834
60.66	2.35182
60.88	10.0797
61.1	3.93053
61.32	6.19362
61.54	1.45842
61.76	4.6256
61.98	2.74209
62.2	11.7081
62.42	0.623832
62.64	11.524
62.86	26.9215
63.08	17.7619
63.3	12.4182
63.52	1.99389
63.74	17.211
63.96	23.2947
64.18	1.4466
64.4	2.37204
64.62	2.97257
64.84	10.2754
65.06	2.07801
65.28	4.27451
65.5	6.21866
65.72	2.13199
65.94	2.16807
66.16	6.15103
66.38	3.10203
66.6	2.12626
66.82	10.13
67.04	8.19321
67.26	12.1437
67.48	3.45529
67.7	8.28732
67.92	2.16929
68.14	6.02775
68.36	3.0661
68.58	4.06056
68.8	8.01129
69.02	24.9068
69.24	1.67361
69.46	2.70902
69.68	1.69289
69.9	9.99442
70.12	4.18825
70.34	15.676
70.56	5.04862
70.78	2.21723
71	7.58619
71.22	2.8838
71.44	9.26455
71.66	5.46629
71.88	2.48897
72.1	0.500491
72.32	1.60343
72.54	6.53944
72.76	10.2663
72.98	10.0164
73.2	4.65297
73.42	3.79899
73.64	10.4381
73.86	2.32918
74.08	7.20726
74.3	11.1986
74.52	2.20463
74.74	5.17536
74.96	6.44601
75.18	11.642
75.4	4.8748
75.62	1.85591
75.84	10.6943
76.06	1.83507
76.28	2.99412
76.5	2.18196
76.72	7.34192
76.94	5.50516
77.16	6.49558
77.38	0.637955
77.6	2.10472
77.82	0.993489
78.04	5.00184
78.26	4.979
78.48	4.02444
78.7	5.15029
78.92	18.1581
79.14	8.25682
79.36	6.13652
79.58	2.13236
79.8	5.07587
80.02	2.0073
80.24	0.097447
80.46	4.77968
80.68	2.88144
80.9	5.70345
81.12	3.45336
81.34	2.24141
81.56	8.09117
81.78	1.99491
82	5.05497
82.22	14.1291
82.44	8.24264
82.66	3.50332
82.88	4.60713
83.1	1.53642
83.32	5.53711
83.54	5.53607
83.76	0.559379
83.98	6.43266
84.2	2.43067
84.42	9.53353
84.64	3.58868
84.86	2.58902
85.08	3.63721
85.3	13.6797
85.52	0.279396
85.74	3.18125
85.96	2.19255
86.18	8.14611
86.4	1.05535
86.62	7.89868
86.84	3.6169
87.06	3.18392
87.28	4.77096
87.5	4.2985
87.72	4.07454
87.94	9.72565
88.16	4.91575
88.38	5.66055
88.6	6.47863
88.82	6.52689
89.04	7.23094
89.26	8.34868
89.48	2.19223
89.7	11.6554
89.92	0.375847
