Measurement: Powder, Xray Data XY Processed
Mineral: Woodwardite
Rruff sample: R060762
Ideal chemistry: (Cu^2+^,Al)_9_(S^6+^O_4_)_2_(OH)_18_nH_2_O
Locality: Cornwall, England
Source: Michael Scott
Description: Pale blue granular coating on bull quartz
Diffraction sample description: Powder, using Mo radiation
x	intensity
2	0
2.18	1.318
2.36	1.65624
2.54	16.0018
2.72	10.3282
2.9	34.9404
3.08	48.844
3.26	42.4083
3.44	38.8814
3.62	40.3654
3.8	38.3663
3.98	41.8142
4.16	28.3664
4.34	28.8126
4.52	20.4058
4.7	20.1406
4.88	8.01272
5.06	12.5426
5.24	17.4738
5.42	11.6064
5.6	2.6179
5.78	1.23759
5.96	0.361913
6.14	0.790357
6.32	8.46119
6.5	20.1164
6.68	26.4287
6.86	34.2031
7.04	47.0069
7.22	55.2027
7.4	77.7604
7.58	89.9378
7.76	82.2673
7.94	68.4488
8.12	61.1061
8.3	75.4784
8.48	53.4834
8.66	56.65
8.84	40.4552
9.02	49.7425
9.2	38.3329
9.38	32.3516
9.56	38.8243
9.74	28.3476
9.92	25.3353
10.1	26.1282
10.28	26.4982
10.46	32.278
10.64	17.9486
10.82	11.8437
11	8.14528
11.18	5.70483
11.36	1.45341
11.54	7.83202
11.72	24.6747
11.9	0.342022
12.08	11.3004
12.26	0.607198
12.44	1.02201
12.62	0.31031
12.8	0.383284
12.98	8.28745
13.16	0.639457
13.34	0.659781
13.52	7.21445
13.7	0.426815
13.88	0.244786
14.06	19.1386
14.24	0.260104
14.42	3.39589
14.6	0.333858
14.78	5.23082
14.96	4.32162
15.14	15.0804
15.32	27.6409
15.5	10.4848
15.68	14.4935
15.86	5.08124
16.04	0.008278
16.22	11.4333
16.4	26.6422
16.58	20.302
16.76	22.7858
16.94	6.77692
17.12	8.56102
17.3	5.44853
17.48	0.222419
17.66	4.90177
17.84	4.57687
18.02	54.6613
18.2	70.209
18.38	2.43635
18.56	0.167537
18.74	6.95916
18.92	3.57093
19.1	8.94631
19.28	5.96504
19.46	3.39903
19.64	8.51598
19.82	0.288283
20	4.96272
20.18	17.1437
20.36	22.4618
20.54	14.2112
20.72	0.097781
20.9	19.4533
21.08	12.4309
21.26	10.3442
21.44	5.4163
21.62	2.45338
21.8	27.3043
21.98	16.4977
22.16	0.270255
22.34	0.265392
22.52	7.19969
22.7	9.52488
22.88	0.891721
23.06	0.446257
23.24	0.408024
23.42	5.28997
23.6	15.3374
23.78	7.21822
23.96	8.98919
24.14	0.352002
24.32	6.74583
24.5	9.89471
24.68	8.81809
24.86	0.450031
25.04	2.02405
25.22	1.77324
25.4	0.204987
25.58	0.095852
25.76	3.90948
25.94	0.148813
26.12	4.95908
26.3	18.9828
26.48	18.8687
26.66	10.6684
26.84	5.06111
27.02	4.77852
27.2	3.18131
27.38	3.36316
27.56	0.309399
27.74	3.66829
27.92	2.01466
28.1	3.02871
28.28	0.206321
28.46	9.50716
28.64	6.76424
28.82	7.14286
29	11.197
29.18	2.09504
29.36	7.82469
29.54	8.15066
29.72	1.93824
29.9	0.684197
30.08	1.61415
30.26	8.57253
30.44	2.87544
30.62	0.212572
30.8	0.106928
30.98	0.047639
31.16	2.35435
31.34	7.99335
31.52	16.4233
31.7	8.49658
31.88	9.25282
32.06	11.1924
32.24	1.14784
32.42	0.402928
32.6	1.48009
32.78	9.28519
32.96	6.69738
33.14	1.5621
33.32	5.47581
33.5	16.6952
33.68	14.1769
33.86	11.3018
34.04	12.0157
34.22	7.80987
34.4	7.56011
34.58	5.11442
34.76	1.1283
34.94	2.41992
35.12	5.28966
35.3	6.79354
35.48	6.37574
35.66	3.13793
35.84	3.45626
36.02	0.212035
36.2	2.53262
36.38	6.73541
36.56	16.7258
36.74	19.9104
36.92	10.3376
37.1	0.345757
37.28	3.92488
37.46	7.20237
37.64	0.309669
37.82	1.24804
38	4.57139
38.18	0.250076
38.36	1.45224
38.54	10.0038
38.72	13.7565
38.9	7.11376
39.08	2.5623
39.26	1.50619
39.44	2.14052
39.62	4.57044
39.8	4.40727
39.98	3.06834
40.16	10.282
40.34	7.78947
40.52	5.67576
40.7	2.17746
40.88	0.922589
41.06	4.86623
41.24	4.6145
41.42	0.066377
41.6	1.76271
41.78	3.6535
41.96	0.235596
42.14	0.135591
42.32	7.39229
42.5	4.01098
42.68	0.485184
42.86	1.17446
43.04	2.22034
43.22	0.308758
43.4	3.67461
43.58	2.5969
43.76	0.167115
43.94	2.11039
44.12	8.66836
44.3	2.11715
44.48	4.566
44.66	4.38641
44.84	2.75257
45.02	0.09256
45.2	1.26263
45.38	1.32422
45.56	1.53035
45.74	3.85889
45.92	1.69335
46.1	4.6564
46.28	0.245258
46.46	0.15927
46.64	2.58601
46.82	4.17226
47	2.9471
47.18	1.25871
47.36	4.66171
47.54	4.2718
47.72	1.91581
47.9	5.45101
48.08	0.045056
48.26	3.45961
48.44	4.07063
48.62	1.83856
48.8	1.94903
48.98	9.80971
49.16	1.26257
49.34	1.0736
49.52	3.53983
49.7	0.665399
49.88	1.50255
50.06	2.1751
50.24	0.314709
50.42	3.3952
50.6	1.17872
50.78	1.1462
50.96	7.35179
51.14	8.0951
51.32	1.33529
51.5	3.93063
51.68	1.91535
51.86	1.82451
52.04	0.694216
52.22	0.541587
52.4	2.47719
52.58	1.14682
52.76	3.18176
52.94	0.011123
53.12	8.97972
53.3	4.57535
53.48	1.48727
53.66	5.61745
53.84	8.01494
54.02	6.40432
54.2	8.64038
54.38	2.9741
54.56	0.082999
54.74	1.69043
54.92	5.18223
55.1	1.28832
55.28	0.416711
55.46	7.52125
55.64	1.80455
55.82	0.988843
56	8.8991
56.18	11.072
56.36	11.7283
56.54	5.07349
56.72	11.3376
56.9	5.17627
57.08	3.92304
57.26	4.91605
57.44	4.96813
57.62	3.07573
57.8	5.44371
57.98	8.21808
58.16	2.60073
58.34	6.76118
58.52	3.00678
58.7	1.5073
58.88	3.46004
59.06	0.130218
59.24	0.082891
59.42	0.11825
59.6	0.215739
59.78	0.187424
59.96	8.33517
60.14	10.0517
60.32	3.77367
60.5	5.18739
60.68	4.29284
60.86	4.25518
61.04	6.92627
61.22	3.68278
61.4	1.54757
61.58	2.40672
61.76	5.12054
61.94	0.131672
62.12	6.98809
62.3	6.35293
62.48	2.39193
62.66	0.877979
62.84	0.030817
63.02	10.112
63.2	9.83059
63.38	0.861514
63.56	3.75345
63.74	1.76955
63.92	2.62199
64.1	0.103523
64.28	1.16463
64.46	2.43553
64.64	4.16506
64.82	4.63903
65	0.56814
