Measurement: Powder, Xray Data XY Processed
Mineral: Woodhouseite
Rruff sample: R060520
Ideal chemistry: CaAl_3_(S^6+^O_4_)(PO_4_)(OH)_6_
Locality: Champion mine, Mono County, California, USA
Source: Michael Scott
Description: Colorless cubes, with striations that display the rhombohedral symmetry
Diffraction sample description: Powder
Measured chemistry: (Ca_0.98_Sr_0.02_)_Σ=1_Al_3.00_[(P_0.53_S_0.47_)_Σ=1_O_4_]_2_((OH)_5.94_(H_2_O)_0.06_)_Σ=6_ ; = darker phase  (Ca_0.94_Sr_0.06_)_Σ=1_Al_3.00_[(P_0.52_S_0.48_)O_4_]_2_((OH)_5.96_(H_2_O)_0.04_)_Σ=6 = lighter phase
Cell parameters: a: 6.7507(2) b: 6.7507(2) c: 6.7507(2) alpha: 62.265(1) beta: 62.265(1) gamma: 62.265(1) volume: 228.54(1) crystal system: rhombohedral
x	intensity
5	0
5.22	16.1067
5.44	14.5778
5.66	17.1631
5.88	8.07346
6.1	4.27281
6.32	6.87718
6.54	9.98158
6.76	2.43454
6.98	12.0853
7.2	4.58979
7.42	17.3161
7.64	0.180997
7.86	1.64071
8.08	6.88111
8.3	3.67159
8.52	4.2193
8.74	6.39662
8.96	11.7732
9.18	4.90544
9.4	2.10536
9.62	9.11521
9.84	2.19988
10.06	11.3873
10.28	2.56405
10.5	0.879733
10.72	0.700858
10.94	0.893725
11.16	7.18269
11.38	3.31428
11.6	6.31552
11.82	3.37523
12.04	3.43463
12.26	0.392175
12.48	4.88899
12.7	1.08454
12.92	3.18641
13.14	1.2566
13.36	7.46279
13.58	2.33794
13.8	6.35398
14.02	5.46493
14.24	8.51403
14.46	3.4399
14.68	2.30688
14.9	4.24795
15.12	5.25644
15.34	4.09265
15.56	15.0871
15.78	26.241
16	1.27808
16.22	4.32342
16.44	8.33024
16.66	1.66808
16.88	4.319
17.1	2.27707
17.32	5.22447
17.54	1.1847
17.76	3.20168
17.98	4.95722
18.2	14.7516
18.42	16.7434
18.64	9.91435
18.86	1.02013
19.08	0.1223
19.3	2.41481
19.52	2.66653
19.74	3.87419
19.96	6.99433
20.18	1.132
20.4	2.24419
20.62	13.3447
20.84	4.44785
21.06	3.4299
21.28	0.369866
21.5	3.66874
21.72	2.53598
21.94	6.5254
22.16	2.60812
22.38	2.76909
22.6	0.234443
22.82	5.21457
23.04	9.3223
23.26	1.40775
23.48	3.34682
23.7	3.15404
23.92	1.0864
24.14	6.93995
24.36	9.84064
24.58	4.63749
24.8	1.30323
25.02	1.02383
25.24	5.83552
25.46	24.6316
25.68	25.3671
25.9	6.39826
26.12	0.285789
26.34	0.171167
26.56	5.33546
26.78	4.34909
27	4.6504
27.22	3.766
27.44	13.4745
27.66	3.82208
27.88	6.82526
28.1	3.70411
28.32	9.64209
28.54	2.33862
28.76	1.03313
28.98	0.397073
29.2	2.9719
29.42	8.24596
29.64	3.67829
29.86	8.6372
30.08	207.053
30.3	27.7178
30.52	518.389
30.74	21.4217
30.96	5.68847
31.18	7.12564
31.4	8.71107
31.62	2.00418
31.84	5.36817
32.06	2.76272
32.28	5.73541
32.5	2.23089
32.72	5.67106
32.94	20.0079
33.16	54.372
33.38	12.6154
33.6	1.68224
33.82	1.77275
34.04	4.08722
34.26	4.26182
34.48	3.59113
34.7	2.73392
34.92	0.563112
35.14	7.54729
35.36	6.62533
35.58	4.39376
35.8	0.757569
36.02	3.15189
36.24	0.860673
36.46	0.315094
36.68	4.80528
36.9	7.66217
37.12	20.601
37.34	2.61821
37.56	12.5827
37.78	2.80899
38	5.20976
38.22	7.11252
38.44	5.1163
38.66	7.22761
38.88	4.34126
39.1	3.43091
39.32	1.0962
39.54	2.85351
39.76	3.47671
39.98	2.07995
40.2	3.29142
40.42	2.51287
40.64	6.12519
40.86	13.7224
41.08	49.4518
41.3	13.0943
41.52	46.1421
41.74	235.496
41.96	13.9684
42.18	7.26641
42.4	5.69423
42.62	4.34078
42.84	2.76478
43.06	2.22648
43.28	4.63867
43.5	4.1163
43.72	7.23281
43.94	6.05485
44.16	7.22894
44.38	1.20596
44.6	0.339177
44.82	3.37287
45.04	1.29124
45.26	2.37228
45.48	12.3608
45.7	10.2688
45.92	0.164999
46.14	0.589332
46.36	2.41504
46.58	0.079332
46.8	3.85984
47.02	4.7049
47.24	1.52064
47.46	5.27097
47.68	7.17995
47.9	7.18784
48.12	32.2825
48.34	118.013
48.56	11.7917
48.78	1.77572
49	0.932124
49.22	6.04552
49.44	10.0809
49.66	7.17267
49.88	4.30289
50.1	4.36673
50.32	7.39459
50.54	9.54734
50.76	5.89884
50.98	0.118907
51.2	2.27793
51.42	0.309798
51.64	2.38849
51.86	7.80232
52.08	4.98319
52.3	16.1014
52.52	36.2116
52.74	10.2864
52.96	0.787929
53.18	8.09625
53.4	6.92978
53.62	2.89967
53.84	7.83689
54.06	5.94902
54.28	5.70464
54.5	9.77479
54.72	4.76632
54.94	3.57061
55.16	4.3674
55.38	4.18071
55.6	0.957852
55.82	1.92213
56.04	15.7709
56.26	4.61284
56.48	4.35721
56.7	10.3067
56.92	0.160532
57.14	2.15508
57.36	4.32522
57.58	8.25851
57.8	4.34758
58.02	2.45635
58.24	8.60068
58.46	2.22658
58.68	4.84134
58.9	3.21445
59.12	0.345516
59.34	0.167164
59.56	8.224
59.78	6.01953
60	6.93743
60.22	5.80073
60.44	3.71951
60.66	3.48931
60.88	3.41735
61.1	11.1624
61.32	9.88508
61.54	1.22506
61.76	7.57905
61.98	2.80683
62.2	5.79298
62.42	12.8176
62.64	11.8689
62.86	5.91623
63.08	8.15699
63.3	13.2509
63.52	18.3496
63.74	4.35498
63.96	3.15222
64.18	3.90843
64.4	2.75385
64.62	6.8425
64.84	4.85498
65.06	25.8881
65.28	37.9106
65.5	3.93338
65.72	5.92385
65.94	15.2074
66.16	4.6304
66.38	4.05385
66.6	8.2437
66.82	8.41374
67.04	3.59104
67.26	4.56059
67.48	5.47536
67.7	6.25878
67.92	5.02097
68.14	8.79367
68.36	1.21252
68.58	7.00685
68.8	4.58296
69.02	9.34382
69.24	9.74021
69.46	0.567387
69.68	7.7494
69.9	9.84916
70.12	12.0176
70.34	0.783476
70.56	5.39901
70.78	1.58335
71	0.85139
71.22	8.29436
71.44	9.42123
71.66	6.5241
71.88	3.75665
72.1	3.75775
72.32	0.117179
72.54	6.99715
72.76	0.99832
72.98	1.96251
73.2	9.94936
73.42	1.60982
73.64	5.5074
73.86	20.477
74.08	14.9959
74.3	4.97784
74.52	0.944742
74.74	2.815
74.96	3.95402
75.18	4.06419
75.4	7.17479
75.62	7.24062
75.84	3.36636
76.06	7.5589
76.28	7.48082
76.5	9.70366
76.72	4.81326
76.94	2.839
77.16	1.82264
77.38	3.00223
77.6	1.05639
77.82	8.96298
78.04	8.0548
78.26	9.05782
78.48	5.00295
78.7	9.96279
78.92	1.71033
79.14	2.5293
79.36	5.42805
79.58	0.683018
79.8	0.026604
80.02	0.864882
80.24	1.98451
80.46	5.06398
80.68	34.8867
80.9	12.8842
81.12	8.13044
81.34	9.17428
81.56	3.20892
81.78	4.20361
82	3.20238
82.22	5.20245
82.44	10.4556
82.66	6.33459
82.88	11.9795
83.1	3.96632
83.32	7.96736
83.54	2.25044
83.76	2.95363
83.98	3.00763
84.2	4.05407
84.42	5.15081
84.64	2.35423
84.86	1.30807
85.08	11.3744
85.3	12.4591
85.52	6.44999
85.74	7.43589
85.96	8.44258
86.18	5.40113
86.4	6.44683
86.62	7.48388
86.84	8.59432
87.06	3.32443
87.28	2.19206
87.5	5.02255
87.72	6.14332
87.94	1.04248
88.16	3.94843
88.38	5.84553
88.6	8.5965
88.82	5.5427
89.04	9.28099
89.26	4.32159
89.48	3.88632
89.7	2.02492
89.92	1.82354
