Measurement: Powder, Xray Data XY Processed
Mineral: Wulfenite
Rruff sample: R050501
Ideal chemistry: Pb^2+^Mo^6+^O_4_
Locality: Los Lamentos, Chihuahua, Mexico
Source: California Institute of Technology
Description: Orange tabular crystal
Diffraction sample description: Powder
Measured chemistry: Pb_1.00_Mo_1.00_O_4_
Cell parameters: a: 5.4357(2) b: 5.4357(2) c: 12.1147(4) alpha: 90 beta: 90 gamma: 90 volume: 357.95(2) crystal system: tetragonal
x	intensity
5	0
5.22	0.970907
5.44	6.81484
5.66	9.56141
5.88	7.7552
6.1	5.7
6.32	17.8043
6.54	11.7645
6.76	3.87441
6.98	3.00303
7.2	11.6665
7.42	6.02785
7.64	0.165629
7.86	1.35481
8.08	2.28631
8.3	5.41913
8.52	0.52172
8.74	7.48021
8.96	9.45042
9.18	17.36
9.4	4.55792
9.62	2.0474
9.84	7.79145
10.06	1.80509
10.28	7.65773
10.5	2.70577
10.72	3.6433
10.94	0.353195
11.16	0.683009
11.38	8.77238
11.6	1.66403
11.82	10.7123
12.04	6.83898
12.26	0.072551
12.48	2.15512
12.7	4.52074
12.92	0.760974
13.14	5.92918
13.36	5.04398
13.58	2.09111
13.8	9.01936
14.02	2.97639
14.24	5.85188
14.46	2.67842
14.68	3.45813
14.9	4.39673
15.12	0.027728
15.34	1.8127
15.56	7.74892
15.78	3.57916
16	0.716256
16.22	3.61699
16.44	3.62583
16.66	7.57503
16.88	4.51374
17.1	4.37573
17.32	3.35151
17.54	6.35778
17.76	7.32878
17.98	31.2618
18.2	7.17976
18.42	3.26733
18.64	3.40701
18.86	3.59913
19.08	1.74666
19.3	1.89878
19.52	3.0024
19.74	2.20379
19.96	2.27157
20.18	7.25189
20.4	9.30594
20.62	1.3162
20.84	0.530611
21.06	2.45838
21.28	0.325413
21.5	0.380816
21.72	6.35843
21.94	0.676404
22.16	7.20496
22.38	2.23448
22.6	4.34134
22.82	2.13478
23.04	0.995089
23.26	2.81731
23.48	0.237243
23.7	2.64721
23.92	4.4162
24.14	2.36805
24.36	1.76073
24.58	1.75259
24.8	21.8405
25.02	5.68258
25.24	5.75438
25.46	6.69003
25.68	1.31879
25.9	3.96732
26.12	5.62726
26.34	0.276784
26.56	11.6259
26.78	1.12205
27	2.68422
27.22	13.2708
27.44	313.12
27.66	97.0078
27.88	10.0207
28.1	9.11305
28.32	2.25794
28.54	6.46643
28.76	2.68866
28.98	3.20833
29.2	0.503482
29.42	35.2142
29.64	41.4349
29.86	13.3901
30.08	3.38911
30.3	2.71796
30.52	0.058544
30.74	2.13362
30.96	3.33815
31.18	8.41652
31.4	0.126139
31.62	3.97074
31.84	3.56731
32.06	6.40441
32.28	1.3714
32.5	2.56003
32.72	13.5228
32.94	136.488
33.16	22.5011
33.38	6.07983
33.6	12.1793
33.82	4.48202
34.04	3.66361
34.26	2.99161
34.48	6.22
34.7	2.18024
34.92	7.12056
35.14	6.13525
35.36	7.08209
35.58	0.90554
35.8	0.671782
36.02	3.83096
36.24	0.333701
36.46	7.53682
36.68	1.58545
36.9	9.31214
37.12	1.70051
37.34	4.40025
37.56	8.55772
37.78	45.6965
38	9.66931
38.22	1.43814
38.44	6.41351
38.66	2.937
38.88	3.96937
39.1	5.98005
39.32	0.996538
39.54	3.03132
39.76	3.94555
39.98	10.75
40.2	6.62523
40.42	4.71246
40.64	3.81587
40.86	29.0457
41.08	2.47362
41.3	3.71214
41.52	2.64733
41.74	0.71875
41.96	3.78367
42.18	5.55773
42.4	2.33025
42.62	6.08822
42.84	0.636467
43.06	4.27116
43.28	3.74366
43.5	29.3083
43.72	5.82845
43.94	3.5811
44.16	2.20933
44.38	2.10233
44.6	25.3078
44.82	193.365
45.04	38.5471
45.26	10.9615
45.48	0.084174
45.7	7.34296
45.92	5.54336
46.14	2.77277
46.36	3.00637
46.58	6.15025
46.8	7.16304
47.02	13.3918
47.24	46.6377
47.46	34.6982
47.68	8.48859
47.9	4.68614
48.12	0.773702
48.34	3.06548
48.56	2.24179
48.78	8.12752
49	0.968241
49.22	4.67334
49.44	2.27382
49.66	11.904
49.88	3.5877
50.1	1.253
50.32	1.86838
50.54	6.61834
50.76	7.49464
50.98	36.5478
51.2	75.8764
51.42	7.01025
51.64	6.49587
51.86	1.01297
52.08	4.28059
52.3	4.54247
52.52	1.74735
52.74	5.15365
52.96	9.52363
53.18	2.5616
53.4	13.4821
53.62	8.1512
53.84	3.61124
54.06	2.90877
54.28	7.25021
54.5	2.6434
54.72	3.02427
54.94	11.4455
55.16	19.072
55.38	27.2987
55.6	141.421
55.82	42.1221
56.04	9.90449
56.26	0.94786
56.48	14.7089
56.7	71.1962
56.92	28.76
57.14	5.6198
57.36	4.3083
57.58	2.27788
57.8	2.30332
58.02	2.03327
58.24	9.64804
58.46	5.16257
58.68	3.50551
58.9	1.46016
59.12	7.61587
59.34	0.752753
59.56	8.55892
59.78	6.57834
60	6.37179
60.22	4.31758
60.44	8.08063
60.66	5.92071
60.88	9.75937
61.1	5.56835
61.32	7.76851
61.54	7.75992
61.76	3.84335
61.98	10.9345
62.2	15.8521
62.42	3.93512
62.64	6.05994
62.86	3.10755
63.08	3.14215
63.3	6.19003
63.52	3.35756
63.74	6.17462
63.96	6.24976
64.18	8.07412
64.4	2.19904
64.62	5.19442
64.84	0.847738
65.06	2.07122
65.28	7.04721
65.5	6.0345
65.72	2.01745
65.94	5.82676
66.16	8.02767
66.38	3.95179
66.6	5.03418
66.82	7.06375
67.04	0.927428
67.26	4.01386
67.48	3.98156
67.7	9.8886
67.92	0.243484
68.14	5.59133
68.36	4.52419
68.58	5.22238
68.8	4.08044
69.02	28.8163
69.24	21.5726
69.46	10.6014
69.68	7.57878
69.9	1.17435
70.12	3.79002
70.34	1.39815
70.56	5.02053
70.78	9.5535
71	11.9433
71.22	53.4924
71.44	42.0355
71.66	4.8944
71.88	16.5663
72.1	71.4255
72.32	48.9901
72.54	13.3211
72.76	0.176579
72.98	2.27534
73.2	10.6605
73.42	2.76702
73.64	3.43663
73.86	6.8442
74.08	7.33382
74.3	10.4381
74.52	9.45127
74.74	4.0327
74.96	2.74676
75.18	1.40121
75.4	2.15163
75.62	3.83685
75.84	31.4627
76.06	20.4067
76.28	2.13183
76.5	9.35207
76.72	10.3089
76.94	17.4252
77.16	10.5159
77.38	3.72907
77.6	1.99012
77.82	12.1691
78.04	0.438156
78.26	6.88066
78.48	8.54947
78.7	54.759
78.92	35.4131
79.14	6.41058
79.36	13.2962
79.58	0.723919
79.8	2.17676
80.02	0.929807
80.24	5.20387
80.46	2.98798
80.68	14.8455
80.9	20.4961
81.12	12.5323
81.34	4.74106
81.56	9.86048
81.78	4.06147
82	9.36481
82.22	6.48126
82.44	6.59168
82.66	7.48445
82.88	7.55283
83.1	4.70318
83.32	2.6203
83.54	19.9344
83.76	11.5951
83.98	8.63506
84.2	10.3777
84.42	13.0233
84.64	5.90938
84.86	6.72928
85.08	2.5335
85.3	19.3505
85.52	1.08697
85.74	7.9645
85.96	17.8228
86.18	41.6723
86.4	21.7492
86.62	0.899512
86.84	0.754422
87.06	7.72173
87.28	3.05624
87.5	1.48678
87.72	0.84122
87.94	3.20026
88.16	6.44598
88.38	6.4799
88.6	6.86521
88.82	0.032512
89.04	0.305328
89.26	0.884469
89.48	3.41961
89.7	1.58021
89.92	14.184
