Measurement: Powder, Xray Data XY Processed
Mineral: Wulfenite
Rruff sample: R050149
Ideal chemistry: Pb^2+^Mo^6+^O_4_
Locality: Chapacase mine, Sierra Cerrillias District, Tocopilla, Chile
Source: Jim McGlasson
Description: Orange thin tabular crystals
Diffraction sample description: Powder
Cell parameters: a: 5.4310(2) b: 5.4310(2) c: 12.1192(7) alpha: 90. beta: 90. gamma: 90. volume: 357.47(2) crystal system: tetragonal
x	intensity
5	0
5.22	10.303
5.44	22.695
5.66	3.428
5.88	5.548
6.1	6.916
6.32	15.328
6.54	5.781
6.76	5.165
6.98	12.269
7.2	3.944
7.42	3.572
7.64	2.111
7.86	12.589
8.08	9.147
8.3	11.728
8.52	0.913
8.74	14.371
8.96	14.718
9.18	4.791
9.4	2.27
9.62	10.296
9.84	8.259
10.06	9.259
10.28	9.685
10.5	8.589
10.72	1.725
10.94	4.304
11.16	3.488
11.38	5.173
11.6	1.142
11.82	4.352
12.04	5.614
12.26	6.745
12.48	12.398
12.7	6.211
12.92	7.513
13.14	6.552
13.36	3.56
13.58	1.427
13.8	5.542
14.02	1.932
14.24	9.058
14.46	7.812
14.68	4.823
14.9	8.054
15.12	7.401
15.34	1.787
15.56	2.484
15.78	2.787
16	8.831
16.22	8.684
16.44	9.33
16.66	5.9
16.88	4.663
17.1	6.42
17.32	19.204
17.54	8.995
17.76	17.018
17.98	35.486
18.2	2.298
18.42	2.266
18.64	6.357
18.86	1.456
19.08	3.357
19.3	9.432
19.52	11.608
19.74	3.525
19.96	4.244
20.18	51.875
20.4	11.975
20.62	13.094
20.84	4.038
21.06	5.996
21.28	26.95
21.5	10.065
21.72	12.174
21.94	4.123
22.16	2.445
22.38	0.532
22.6	4.619
22.82	5.574
23.04	0.617
23.26	2.158
23.48	14.29
23.7	6.054
23.92	5.961
24.14	20.721
24.36	2.403
24.58	8.47
24.8	28.831
25.02	0.73
25.24	7.844
25.46	5.378
25.68	6.733
25.9	3.141
26.12	25.207
26.34	13.519
26.56	9.86
26.78	68.27
27	14.55
27.22	21.692
27.44	393.715
27.66	154.009
27.88	7.243
28.1	15.23
28.32	5.222
28.54	5.156
28.76	9.11
28.98	2.936
29.2	17.02
29.42	248.363
29.64	49.75
29.86	160.029
30.08	20.033
30.3	23.163
30.52	42.795
30.74	5.929
30.96	0.211
31.18	1.636
31.4	4.255
31.62	2.858
31.84	10.406
32.06	2.555
32.28	4.893
32.5	1.084
32.72	17.342
32.94	121.111
33.16	51.063
33.38	8.154
33.6	1.37
33.82	4.223
34.04	8.5
34.26	2.888
34.48	3.183
34.7	2.363
34.92	5.654
35.14	3.801
35.36	15.787
35.58	4.737
35.8	0.561
36.02	5.053
36.24	4.664
36.46	11.543
36.68	8.23
36.9	8.122
37.12	5.268
37.34	7.204
37.56	4.166
37.78	56.442
38	7.579
38.22	1.249
38.44	8.523
38.66	5.8
38.88	3.927
39.1	7.119
39.32	4.18
39.54	9.994
39.76	3.605
39.98	1.521
40.2	5.342
40.42	0.317
40.64	20.188
40.86	22.15
41.08	8.725
41.3	7.675
41.52	6.463
41.74	1.478
41.96	6.321
42.18	1.113
42.4	6.875
42.62	5.496
42.84	1.894
43.06	36.761
43.28	15.197
43.5	34.849
43.72	11.337
43.94	5.922
44.16	0.296
44.38	28.309
44.6	29.882
44.82	164.493
45.04	33.611
45.26	6.337
45.48	2.246
45.7	31.967
45.92	10.759
46.14	6.644
46.36	2.604
46.58	18.704
46.8	8.395
47.02	3.589
47.24	55.195
47.46	39.119
47.68	9.287
47.9	9.734
48.12	28.732
48.34	13.218
48.56	2.64
48.78	0.904
49	4.781
49.22	9.379
49.44	12.594
49.66	9.442
49.88	6.525
50.1	4.361
50.32	4.73
50.54	0.834
50.76	12.397
50.98	58.837
51.2	126.22
51.42	14.986
51.64	9.142
51.86	4.528
52.08	3.802
52.3	1.065
52.52	4.187
52.74	8.25
52.96	13.119
53.18	8.174
53.4	4.751
53.62	15.038
53.84	10.572
54.06	5.246
54.28	5.682
54.5	5.281
54.72	1.881
54.94	3.249
55.16	14.282
55.38	15.02
55.6	133.286
55.82	68.065
56.04	14.215
56.26	8.462
56.48	9.818
56.7	60.994
56.92	69.097
57.14	13.314
57.36	4.687
57.58	2.054
57.8	5.103
58.02	9.248
58.24	10.487
58.46	0.86
58.68	5.432
58.9	9.287
59.12	11.227
59.34	8.571
59.56	11.653
59.78	11.858
60	13.435
60.22	2.773
60.44	8.387
60.66	0.761
60.88	7.905
61.1	6.437
61.32	8.922
61.54	5.449
61.76	1.955
61.98	12.257
62.2	12.394
62.42	2.716
62.64	3.829
62.86	3.742
63.08	7.673
63.3	9.765
63.52	11.862
63.74	9.645
63.96	1.622
64.18	10.729
64.4	2.055
64.62	0.903
64.84	5.025
65.06	3.925
65.28	1.843
65.5	3.038
65.72	4.912
65.94	10.752
66.16	11.52
66.38	13.109
66.6	6.854
66.82	0.684
67.04	10.43
67.26	9.333
67.48	5.44
67.7	0.25
67.92	2.802
68.14	3.645
68.36	3.278
68.58	11.079
68.8	13.104
69.02	16.067
69.24	26.039
69.46	16.756
69.68	4.111
69.9	2.59
70.12	10.193
70.34	0.262
70.56	7.26
70.78	5.907
71	7.684
71.22	34.285
71.44	27.774
71.66	11.462
71.88	11.405
72.1	37.312
72.32	50.907
72.54	16.518
72.76	8.277
72.98	5.892
73.2	2.391
73.42	7.912
73.64	0.806
73.86	3.803
74.08	4.784
74.3	8.336
74.52	17.827
74.74	8.553
74.96	3.228
75.18	1.754
75.4	8.488
75.62	2.117
75.84	17.938
76.06	7.685
76.28	4.296
76.5	1.833
76.72	6.174
76.94	5.963
77.16	8.223
77.38	2.435
77.6	1.666
77.82	0.148
78.04	2.062
78.26	8.724
78.48	8.94
78.7	17.011
78.92	9.927
79.14	6.506
79.36	2.429
79.58	11.463
79.8	0.546
80.02	3.536
80.24	8.796
80.46	12.833
80.68	20.576
80.9	7.847
81.12	0.433
81.34	9.244
81.56	5.759
81.78	4.024
82	9.185
82.22	4.373
82.44	11.229
82.66	9.254
82.88	0.658
83.1	3.126
83.32	9.126
83.54	17.821
83.76	15.961
83.98	11.842
84.2	7.022
84.42	2.08
84.64	4.117
84.86	5.062
85.08	7.975
85.3	12.794
85.52	2.333
85.74	2.586
85.96	10.348
86.18	16.062
86.4	11.895
86.62	4.775
86.84	8.788
87.06	0.982
87.28	4.498
87.5	2.769
87.72	3.101
87.94	7.529
88.16	6.784
88.38	4.256
88.6	5.656
88.82	7.793
89.04	9.276
89.26	12.17
89.48	10.626
89.7	3.119
89.92	4.95
