Measurement: Powder, Xray Data XY Processed
Mineral: Xanthoxenite
Rruff sample: R050234
Ideal chemistry: Ca_4_Fe^3+^_2_(PO_4_)_4_(OH)_2_3H_2_O
Locality: Palermo mine, North Groton, Grafton County, New Hampshire, USA
Source: Marcus Origlieri
Description: Pale-yellow massive
Diffraction sample description: Powder
x	intensity
5	0
5.22	4.71023
5.44	16.7582
5.66	14.9924
5.88	11.9139
6.1	19.4401
6.32	11.7906
6.54	11.4122
6.76	7.34279
6.98	7.17362
7.2	11.7431
7.42	16.4414
7.64	18.9092
7.86	7.18627
8.08	13.1495
8.3	5.24346
8.52	14.734
8.74	13.0704
8.96	12.9512
9.18	12.9646
9.4	3.38559
9.62	5.21871
9.84	8.93829
10.06	15.0958
10.28	10.6081
10.5	10.471
10.72	18.2464
10.94	6.31419
11.16	19.1819
11.38	13.3505
11.6	20.1421
11.82	2.65976
12.04	13.158
12.26	0.551773
12.48	14.4076
12.7	2.30934
12.92	14.0653
13.14	21.5272
13.36	7.35829
13.58	20.2131
13.8	19.9727
14.02	39.7224
14.24	9.37265
14.46	9.52782
14.68	16.1407
14.9	10.0806
15.12	20.2855
15.34	16.3597
15.56	19.594
15.78	14.9856
16	10.2011
16.22	8.4221
16.44	14.0014
16.66	30.8641
16.88	6.18826
17.1	18.2424
17.32	12.421
17.54	18.2204
17.76	19.2294
17.98	21.7251
18.2	27.8053
18.42	10.8614
18.64	11.6113
18.86	1.95449
19.08	3.84182
19.3	12.4189
19.52	13.8955
19.74	2.88071
19.96	26.2767
20.18	23.3079
20.4	10.4307
20.62	14.0973
20.84	20.0478
21.06	19.3049
21.28	3.18448
21.5	20.069
21.72	20.3648
21.94	13.7378
22.16	13.5683
22.38	7.13244
22.6	17.0079
22.82	4.94016
23.04	16.1698
23.26	11.8123
23.48	28.9507
23.7	2.71938
23.92	16.6422
24.14	18.884
24.36	15.265
24.58	7.92123
24.8	15.8115
25.02	29.6603
25.24	20.2399
25.46	28.8842
25.68	23.1997
25.9	16.4182
26.12	30.389
26.34	13.0464
26.56	18.6975
26.78	1.55294
27	5.6593
27.22	10.8831
27.44	39.8787
27.66	30.103
27.88	8.74467
28.1	7.4515
28.32	32.5063
28.54	25.5053
28.76	7.15088
28.98	25.9708
29.2	88.6849
29.42	12.9284
29.64	10.74
29.86	11.0646
30.08	36.1609
30.3	24.7744
30.52	25.6144
30.74	18.2332
30.96	6.87315
31.18	4.2127
31.4	6.79982
31.62	32.7999
31.84	16.0979
32.06	23.3633
32.28	15.3606
32.5	15.369
32.72	54.5844
32.94	49.732
33.16	8.63218
33.38	26.6088
33.6	23.3989
33.82	32.8725
34.04	18.2506
34.26	22.8003
34.48	33.7953
34.7	16.8101
34.92	11.5005
35.14	33.7871
35.36	5.26596
35.58	17.586
35.8	6.0002
36.02	12.801
36.24	17.8606
36.46	29.0607
36.68	25.4308
36.9	17.5105
37.12	7.9349
37.34	16.9996
37.56	6.52901
37.78	3.7925
38	17.0831
38.22	11.0015
38.44	7.68642
38.66	13.0288
38.88	30.1844
39.1	18.3966
39.32	9.5602
39.54	14.4189
39.76	16.9274
39.98	8.8866
40.2	11.0444
40.42	36.8264
40.64	14.4107
40.86	7.28148
41.08	16.8587
41.3	3.76692
41.52	1.35037
41.74	11.3311
41.96	14.9687
42.18	22.4979
42.4	3.16752
42.62	11.9619
42.84	14.8712
43.06	1.71706
43.28	18.4349
43.5	23.8313
43.72	14.5172
43.94	15.463
44.16	3.40025
44.38	20.4516
44.6	18.669
44.82	11.9328
45.04	35.1082
45.26	10.8319
45.48	3.28148
45.7	7.84229
45.92	12.9105
46.14	34.1814
46.36	18.2729
46.58	4.41934
46.8	23.3486
47.02	6.31932
47.24	19.7426
47.46	17.2334
47.68	15.8697
47.9	21.7447
48.12	17.4229
48.34	16.692
48.56	7.6227
48.78	1.35172
49	6.77551
49.22	14.8285
49.44	16.9796
49.66	12.6496
49.88	25.773
50.1	3.01135
50.32	5.39677
50.54	24.2789
50.76	2.98121
50.98	14.837
51.2	10.3679
51.42	17.3494
51.64	11.3418
51.86	1.23745
52.08	12.1386
52.3	25.6196
52.52	18.3549
52.74	3.22976
52.96	23.7903
53.18	18.0858
53.4	10.2123
53.62	5.76192
53.84	18.1924
54.06	10.899
54.28	7.99838
54.5	8.12737
54.72	25.2504
54.94	29.3455
55.16	7.30611
55.38	18.1671
55.6	5.16856
55.82	7.64055
56.04	8.98952
56.26	2.30127
56.48	17.1956
56.7	7.65407
56.92	19.5732
57.14	10.0889
57.36	9.82018
57.58	1.63905
57.8	16.0848
58.02	8.39252
58.24	22.6834
58.46	22.3585
58.68	11.2865
58.9	13.64
59.12	23.531
59.34	7.20721
59.56	0.33984
59.78	14.2553
60	16.9603
60.22	18.3315
60.44	18.7749
60.66	15.8932
60.88	14.8023
61.1	18.5354
61.32	6.96688
61.54	8.91017
61.76	14.9484
61.98	6.87831
62.2	11.4717
62.42	7.20044
62.64	23.6915
62.86	6.82156
63.08	16.2185
63.3	17.4247
63.52	17.6804
63.74	21.9894
63.96	8.67433
64.18	6.85027
64.4	9.7655
64.62	16.7884
64.84	7.00703
65.06	2.22499
65.28	5.38733
65.5	15.3024
65.72	8.00249
65.94	11.2648
66.16	14.45
66.38	8.96335
66.6	19.957
66.82	20.6245
67.04	22.8339
67.26	20.1661
67.48	7.80053
67.7	3.15168
67.92	6.43129
68.14	11.736
68.36	2.15729
68.58	13.4771
68.8	18.6004
69.02	8.89543
69.24	10.9703
69.46	14.338
69.68	2.31373
69.9	9.38907
70.12	8.76865
70.34	9.9053
70.56	17.819
70.78	19.7975
71	11.1867
71.22	7.23485
71.44	20.7071
71.66	7.67673
71.88	15.8366
72.1	26.8942
72.32	17.9902
72.54	14.8331
72.76	14.6582
72.98	21.7945
73.2	14.9346
73.42	12.1828
73.64	6.54789
73.86	4.63091
74.08	15.9168
74.3	20.9415
74.52	14.9564
74.74	20.0138
74.96	17.7799
75.18	7.15735
75.4	11.6889
75.62	9.64199
75.84	21.5609
76.06	3.37036
76.28	11.8529
76.5	16.8452
76.72	7.45633
76.94	11.5184
77.16	21.4752
77.38	11.8312
77.6	16.4213
77.82	1.82895
78.04	15.9954
78.26	10.0694
78.48	6.92954
78.7	34.5845
78.92	6.0554
79.14	8.07225
79.36	20.2418
79.58	6.48748
79.8	8.13936
80.02	11.3799
80.24	10.6967
80.46	8.69598
80.68	20.5248
80.9	3.63979
81.12	6.27671
81.34	14.942
81.56	4.99222
81.78	14.1174
82	12.2823
82.22	3.4419
82.44	13.7571
82.66	10.813
82.88	14.0549
83.1	10.4002
83.32	9.80632
83.54	12.1657
83.76	4.36421
83.98	6.10533
84.2	15.1408
84.42	11.722
84.64	17.5792
84.86	12.4184
85.08	0.556429
85.3	4.46665
85.52	15.2678
85.74	18.3638
85.96	6.20056
86.18	10.9378
86.4	4.4507
86.62	17.0471
86.84	2.3314
87.06	13.6849
87.28	8.94723
87.5	4.09015
87.72	8.37177
87.94	9.46801
88.16	5.02252
88.38	7.35807
88.6	11.6654
88.82	17.0552
89.04	4.03033
89.26	16.0373
89.48	14.6136
89.7	0.459618
89.92	16.5024
