Measurement: Powder, Xray Data XY Processed
Mineral: Xenotime-(Y)
Rruff sample: R050178
Ideal chemistry: Y^3+^PO_4_
Locality: Novo Horizonte, Bahia, Brazil
Source: Marcus Origlieri
Description: Brown crystal fragments
Diffraction sample description: Powder
Measured chemistry: (Y_0.74_Dy_0.09_Gd_0.06_Er_0.04_Yb_0.02_Ho_0.01_Tb_0.01_Sm_0.01_Eu_0.01_)_Σ=1.00_(P_0.97_As_0.02_Si_0.01_)_Σ=1.00_O_4_
Cell parameters: a: 6.9042(2) b: 6.9042(2) c: 6.0355(5) alpha: 90. beta: 90. gamma: 90. volume: 287.70(2) crystal system: tetragonal
x	intensity
5	0
5.22	11.7781
5.44	23.4203
5.66	26.8158
5.88	27.2235
6.1	19.6464
6.32	3.29537
6.54	2.00815
6.76	0.503065
6.98	2.97007
7.2	0.715885
7.42	15.0298
7.64	7.30879
7.86	8.44038
8.08	16.8835
8.3	5.64067
8.52	1.45057
8.74	6.66423
8.96	17.9559
9.18	6.94778
9.4	13.8757
9.62	15.8244
9.84	8.0424
10.06	2.74777
10.28	5.61964
10.5	2.94813
10.72	6.71643
10.94	11.5625
11.16	3.90106
11.38	10.7777
11.6	10.1881
11.82	11.7973
12.04	1.21738
12.26	5.61382
12.48	0.749746
12.7	2.23168
12.92	5.74321
13.14	15.1321
13.36	11.9126
13.58	8.49373
13.8	9.04002
14.02	20.5549
14.24	1.57543
14.46	0.119816
14.68	8.13694
14.9	16.0246
15.12	8.04369
15.34	5.25222
15.56	12.8916
15.78	11.2316
16	18.1506
16.22	3.06264
16.44	2.95351
16.66	3.44877
16.88	10.9653
17.1	8.93887
17.32	0.993931
17.54	6.92826
17.76	7.79521
17.98	5.39725
18.2	12.0482
18.42	11.4291
18.64	9.25596
18.86	13.1858
19.08	6.59479
19.3	10.7822
19.52	130.499
19.74	18.3713
19.96	13.6994
20.18	9.80493
20.4	6.02654
20.62	12.9716
20.84	5.20312
21.06	2.70148
21.28	14.2616
21.5	0.775375
21.72	9.48642
21.94	12.7239
22.16	14.1563
22.38	2.9594
22.6	6.80939
22.82	18.1039
23.04	10.3631
23.26	31.2118
23.48	9.35096
23.7	0.712727
23.92	3.921
24.14	1.52506
24.36	3.26506
24.58	9.90164
24.8	22.6182
25.02	12.4343
25.24	3.33541
25.46	18.9859
25.68	61.3403
25.9	937.871
26.12	15.0618
26.34	10.269
26.56	16.6791
26.78	9.76389
27	2.61171
27.22	10.7142
27.44	2.44916
27.66	4.23134
27.88	5.82889
28.1	8.09071
28.32	14.557
28.54	5.50158
28.76	12.6805
28.98	7.95119
29.2	3.19824
29.42	14.4601
29.64	7.45934
29.86	0.329638
30.08	9.75606
30.3	4.9728
30.52	4.55007
30.74	14.8731
30.96	7.75083
31.18	12.5342
31.4	3.53109
31.62	7.84073
31.84	2.19196
32.06	8.01375
32.28	12.955
32.5	30.8543
32.72	21.0903
32.94	9.40863
33.16	14.6135
33.38	11.3981
33.6	13.0584
33.82	12.7449
34.04	4.38132
34.26	2.44401
34.48	15.56
34.7	21.2182
34.92	166.736
35.14	31.1849
35.36	9.9083
35.58	10.2509
35.8	9.05671
36.02	3.02783
36.24	0.498295
36.46	5.17467
36.68	49.4454
36.9	108.56
37.12	7.01288
37.34	9.69693
37.56	10.9915
37.78	11.7294
38	18.9302
38.22	13.5351
38.44	5.73565
38.66	0.942831
38.88	4.75859
39.1	7.80251
39.32	21.5502
39.54	19.5461
39.76	33.4382
39.98	13.2635
40.2	2.76894
40.42	11.4385
40.64	3.93383
40.86	11.5509
41.08	18.1826
41.3	15.8159
41.52	5.01078
41.74	4.65155
41.96	73.6254
42.18	50.5845
42.4	5.6114
42.62	13.1466
42.84	0.318323
43.06	3.12975
43.28	8.78404
43.5	8.03039
43.72	9.47597
43.94	9.80563
44.16	10.9432
44.38	7.84568
44.6	14.7449
44.82	9.63552
45.04	14.6055
45.26	8.88449
45.48	7.61312
45.7	9.22158
45.92	8.05062
46.14	10.696
46.36	25.4681
46.58	10.5908
46.8	4.8659
47.02	54.0291
47.24	16.2187
47.46	4.07211
47.68	8.62021
47.9	17.7268
48.12	8.703
48.34	9.50771
48.56	1.35004
48.78	5.00753
49	9.13067
49.22	12.161
49.44	16.7779
49.66	15.7048
49.88	28.5702
50.1	134.297
50.32	0.551056
50.54	11.9054
50.76	9.41979
50.98	2.00878
51.2	13.2119
51.42	16
51.64	311.86
51.86	67.5898
52.08	16.8242
52.3	7.93845
52.52	0.281872
52.74	8.4955
52.96	32.2041
53.18	80.82
53.4	15.4421
53.62	9.78554
53.84	6.14088
54.06	3.94211
54.28	17.5977
54.5	22.3912
54.72	1.76027
54.94	14.9788
55.16	11.9703
55.38	11.2279
55.6	4.2846
55.82	16.3881
56.04	5.78744
56.26	13.5196
56.48	4.6981
56.7	5.03742
56.92	9.16736
57.14	17.1953
57.36	15.0289
57.58	20.1091
57.8	15.0943
58.02	17.0738
58.24	3.85956
58.46	0.345654
58.68	8.09005
58.9	10.7876
59.12	1.04745
59.34	6.45066
59.56	23.8531
59.78	18.9395
60	30.7999
60.22	5.01924
60.44	0.114996
60.66	10.1119
60.88	8.18942
61.1	8.36575
61.32	6.79582
61.54	7.17602
61.76	7.79868
61.98	3.40186
62.2	4.84115
62.42	7.56689
62.64	3.48183
62.86	1.82815
63.08	2.72297
63.3	10.6626
63.52	1.90792
63.74	15.5101
63.96	16.1053
64.18	4.36358
64.4	6.97321
64.62	8.92785
64.84	3.42236
65.06	39.4158
65.28	39.8503
65.5	15.8785
65.72	2.57405
65.94	7.20149
66.16	12.4605
66.38	9.04961
66.6	1.4689
66.82	10.5766
67.04	6.51719
67.26	0.523758
67.48	1.10405
67.7	18.5354
67.92	16.4628
68.14	5.2823
68.36	9.21257
68.58	14.0564
68.8	10.3224
69.02	5.18776
69.24	11.5615
69.46	3.58551
69.68	14.3088
69.9	35.1601
70.12	23.9899
70.34	10.645
70.56	33.8557
70.78	8.44826
71	0.764486
71.22	3.21098
71.44	1.49856
71.66	12.2029
71.88	5.56984
72.1	8.84478
72.32	10.7326
72.54	15.6628
72.76	5.04131
72.98	4.84466
73.2	12.6976
73.42	14.6628
73.64	38.4993
73.86	31.3757
74.08	14.4297
74.3	14.2376
74.52	0.016373
74.74	14.1742
74.96	0.009361
75.18	0.803883
75.4	1.95133
75.62	12.2302
75.84	18.9673
76.06	16.4942
76.28	4.1892
76.5	1.87351
76.72	14.7498
76.94	15.489
77.16	63.444
77.38	36.4001
77.6	10.1016
77.82	16.6562
78.04	9.78778
78.26	18.389
78.48	8.72407
78.7	7.33387
78.92	14.6728
79.14	16.5082
79.36	5.27977
79.58	9.12193
79.8	7.69411
80.02	13.0245
80.24	9.31674
80.46	4.18278
80.68	0.225914
80.9	11.9203
81.12	15.7303
81.34	4.50741
81.56	5.42103
81.78	17.1076
82	0.590298
82.22	16.2238
82.44	5.7122
82.66	12.5529
82.88	0.945723
83.1	14.6449
83.32	0.687532
83.54	3.52342
83.76	14.1006
83.98	19.7479
84.2	15.3805
84.42	16.1147
84.64	10.9547
84.86	10.9266
85.08	12.1205
85.3	11.1348
85.52	15.2026
85.74	5.2884
85.96	12.1238
86.18	2.48448
86.4	4.50562
86.62	1.66074
86.84	5.64811
87.06	0.936739
87.28	22.1438
87.5	11.6167
87.72	10.677
87.94	12.3694
88.16	0.747091
88.38	2.09042
88.6	40.4951
88.82	49.6048
89.04	64.5726
89.26	9.78393
89.48	2.4458
89.7	24.6623
89.92	0.618877
