Measurement: Powder, Xray Data XY Processed
Mineral: Xenotime-(Y)
Rruff sample: R060428
Ideal chemistry: Y^3+^PO_4_
Locality: Zagi Mountain, near Hammedabad, Khaffor Dehri, North-West Frontier Province, Pakistan
Source: Herb Obodda
Description: Brown prismatic crystals
Diffraction sample description: Powder
Measured chemistry: (Y_0.85_Dy_0.11_Yb_0.04_)_Î£=1_P_1.00_O_4_
Cell parameters: a: 6.8915(1) b: 6.8915(1) c: 6.0282(2) alpha: 90. beta: 90. gamma: 90. volume: 286.30(1) crystal system: tetragonal
x	intensity
5	0
5.22	8.70543
5.44	21.6466
5.66	21.9929
5.88	18.6173
6.1	19.9207
6.32	6.25847
6.54	11.3356
6.76	1.72964
6.98	13.0114
7.2	5.22905
7.42	18.1271
7.64	11.4182
7.86	6.86789
8.08	17.2503
8.3	8.22183
8.52	4.39191
8.74	4.76261
8.96	5.96689
9.18	18.0079
9.4	4.27766
9.62	8.42816
9.84	8.78781
10.06	6.10908
10.28	10.8441
10.5	10.7788
10.72	12.8147
10.94	10.8758
11.16	0.096985
11.38	9.03748
11.6	2.16167
11.82	10.196
12.04	5.31099
12.26	2.46241
12.48	18.2028
12.7	9.26104
12.92	4.49983
13.14	8.09727
13.36	1.07299
13.58	0.055313
13.8	12.1068
14.02	13.1639
14.24	1.74062
14.46	13.8148
14.68	8.85919
14.9	7.35142
15.12	3.35067
15.34	6.06021
15.56	9.11829
15.78	16.4276
16	5.24201
16.22	10.2354
16.44	12.4451
16.66	8.90646
16.88	4.03761
17.1	13.8608
17.32	13.4426
17.54	4.69259
17.76	9.38598
17.98	3.75519
18.2	19.1578
18.42	2.1755
18.64	12.4466
18.86	10.8365
19.08	14.4032
19.3	13.181
19.52	116.203
19.74	29.9101
19.96	0.36047
20.18	1.04828
20.4	10.0857
20.62	5.35185
20.84	13.0104
21.06	15.4875
21.28	13.0352
21.5	9.94945
21.72	6.13628
21.94	0.462627
22.16	8.40665
22.38	10.4138
22.6	4.41831
22.82	4.2874
23.04	8.48766
23.26	15.0627
23.48	20.8452
23.7	3.21735
23.92	10.1632
24.14	1.35936
24.36	0.257566
24.58	3.40766
24.8	8.52449
25.02	9.22145
25.24	20.4114
25.46	20.3737
25.68	93.9569
25.9	807.056
26.12	83.8128
26.34	23.8783
26.56	11.5053
26.78	10.0907
27	0.04512
27.22	15.9242
27.44	9.79758
27.66	10.6316
27.88	10.5671
28.1	3.98542
28.32	12.6881
28.54	8.03613
28.76	3.92159
28.98	7.61609
29.2	14.6993
29.42	5.54963
29.64	6.53027
29.86	12.6732
30.08	2.67514
30.3	3.52912
30.52	6.32415
30.74	11.2691
30.96	6.13673
31.18	4.93073
31.4	1.75633
31.62	3.05839
31.84	10.8941
32.06	14.7522
32.28	5.4304
32.5	22.1323
32.72	38.2643
32.94	15.233
33.16	6.97897
33.38	2.61135
33.6	0.419125
33.82	14.1048
34.04	9.74407
34.26	11.135
34.48	12.7502
34.7	29.1838
34.92	115.059
35.14	96.5303
35.36	10.1255
35.58	11.6971
35.8	5.70347
36.02	9.75349
36.24	1.93538
36.46	7.52569
36.68	27.9062
36.9	69.6551
37.12	30.947
37.34	20.6095
37.56	10.8749
37.78	9.44389
38	21.1474
38.22	3.19822
38.44	7.52626
38.66	9.74606
38.88	8.86197
39.1	2.61797
39.32	9.84214
39.54	13.2052
39.76	28.4432
39.98	14.3406
40.2	6.78488
40.42	8.47519
40.64	4.93004
40.86	6.83296
41.08	16.7125
41.3	0.579824
41.52	6.87436
41.74	32.1711
41.96	39.468
42.18	97.2147
42.4	20.214
42.62	5.1079
42.84	9.61945
43.06	3.95847
43.28	12.4796
43.5	6.63138
43.72	2.80863
43.94	4.01731
44.16	4.07651
44.38	13.8292
44.6	12.7854
44.82	12.0523
45.04	14.3109
45.26	11.0329
45.48	4.92788
45.7	14.6005
45.92	6.5981
46.14	13.5545
46.36	8.77368
46.58	6.42216
46.8	14.5017
47.02	38.7588
47.24	13.3626
47.46	8.35315
47.68	6.61089
47.9	2.76923
48.12	13.6428
48.34	7.32234
48.56	10.2192
48.78	8.28345
49	9.80576
49.22	0.009846
49.44	5.37028
49.66	5.91521
49.88	29.7885
50.1	53.5837
50.32	20.249
50.54	17.5831
50.76	2.99811
50.98	1.16047
51.2	16.5437
51.42	10.551
51.64	89.8098
51.86	111.436
52.08	39.68
52.3	11.4466
52.52	2.85473
52.74	5.37909
52.96	19.1629
53.18	57.7424
53.4	35.4752
53.62	1.67559
53.84	9.72979
54.06	3.08436
54.28	15.2434
54.5	24.0356
54.72	0.900179
54.94	6.25493
55.16	8.16662
55.38	8.90183
55.6	10.5249
55.82	1.07312
56.04	11.2343
56.26	4.56388
56.48	2.72991
56.7	6.82428
56.92	8.06403
57.14	21.9906
57.36	11.0144
57.58	20.1115
57.8	17.4162
58.02	12.5763
58.24	1.33349
58.46	2.06994
58.68	3.70644
58.9	7.29249
59.12	4.49101
59.34	6.91712
59.56	11.4958
59.78	14.1358
60	33.6271
60.22	22.5226
60.44	7.0773
60.66	8.20832
60.88	9.69192
61.1	5.88191
61.32	12.2999
61.54	5.76179
61.76	12.0674
61.98	11.5309
62.2	12.9076
62.42	11.8122
62.64	14.3176
62.86	6.77496
63.08	6.94934
63.3	0.734909
63.52	8.62844
63.74	19.591
63.96	11.3094
64.18	4.03606
64.4	3.54802
64.62	0.267118
64.84	12.1688
65.06	21.6181
65.28	38.1628
65.5	22.9747
65.72	0.170376
65.94	1.48837
66.16	4.66284
66.38	0.311443
66.6	0.754629
66.82	2.86707
67.04	1.87828
67.26	15.4903
67.48	3.70335
67.7	23.7457
67.92	16.0516
68.14	17.7929
68.36	10.2989
68.58	6.11346
68.8	2.34981
69.02	4.39763
69.24	1.08543
69.46	0.598143
69.68	21.9264
69.9	23.2334
70.12	18.5124
70.34	8.87221
70.56	13.9522
70.78	2.52558
71	6.56179
71.22	3.94668
71.44	13.9323
71.66	2.5088
71.88	9.30366
72.1	7.98911
72.32	3.3618
72.54	1.31076
72.76	6.59072
72.98	7.32037
73.2	11.2216
73.42	13.1051
73.64	8.81998
73.86	18.2722
74.08	25.8882
74.3	7.55476
74.52	1.42796
74.74	1.69314
74.96	13.0241
75.18	5.16575
75.4	2.62826
75.62	15.4738
75.84	23.4413
76.06	14.1454
76.28	13.1855
76.5	7.46793
76.72	5.7969
76.94	12.4764
77.16	18.3329
77.38	26.1825
77.6	17.9848
77.82	0.918047
78.04	2.50066
78.26	5.62672
78.48	12.0606
78.7	16.7099
78.92	10.6676
79.14	4.24214
79.36	17.8762
79.58	3.15178
79.8	4.3809
80.02	14.6157
80.24	8.01166
80.46	3.06475
80.68	12.6026
80.9	8.60653
81.12	17.17
81.34	11.7683
81.56	8.76345
81.78	2.4726
82	2.74716
82.22	3.698
82.44	6.41095
82.66	4.02158
82.88	19.9271
83.1	15.3157
83.32	8.08098
83.54	9.77737
83.76	11.8608
83.98	1.1999
84.2	19.0699
84.42	19.369
84.64	6.01637
84.86	7.77959
85.08	7.84674
85.3	6.44383
85.52	15.2629
85.74	15.5008
85.96	10.2392
86.18	1.07184
86.4	0.482031
86.62	8.33822
86.84	2.8338
87.06	17.4693
87.28	3.57814
87.5	2.38631
87.72	1.5256
87.94	10.5569
88.16	3.21975
88.38	0.708096
88.6	7.99628
88.82	32.3108
89.04	19.7493
89.26	17.2447
89.48	10.1825
89.7	7.54291
89.92	5.24007
