Measurement: Powder, Xray Data XY Processed
Mineral: Yttrotantalite-(Y)
Rruff sample: R080046
Ideal chemistry: (Y^3+^,U^6+^,Fe^2+^)(Ta^5+^,Nb^5+^)_2_(O,OH)_4_
Locality: Swaziland
Source: American Museum of Natural History
Description: Brown glassy from amorphous sample R060022 after heating at T = 850 C for 18 hours
Diffraction sample description: Powder
x	intensity
5	0
5.22	15.4805
5.44	29.4801
5.66	10.4795
5.88	18.0359
6.1	24.4138
6.32	0.006668
6.54	21.9514
6.76	5.457
6.98	22.1757
7.2	12.2504
7.42	3.3297
7.64	7.95213
7.86	0.1763
8.08	23.3731
8.3	0.398743
8.52	2.63848
8.74	9.27104
8.96	1.80669
9.18	13.3101
9.4	19.1165
9.62	6.88808
9.84	32.9193
10.06	27.4434
10.28	10.1149
10.5	36.6376
10.72	39.8619
10.94	9.29074
11.16	25.8586
11.38	19.1237
11.6	57.9898
11.82	38.3123
12.04	29.4314
12.26	32.367
12.48	29.8813
12.7	21.2422
12.92	57.2704
13.14	20.3701
13.36	47.7536
13.58	28.1819
13.8	26.7666
14.02	17.4037
14.24	5.10349
14.46	18.5137
14.68	39.643
14.9	25.1541
15.12	16.0002
15.34	25.6639
15.56	34.9975
15.78	6.10086
16	45.2948
16.22	25.6696
16.44	21.029
16.66	20.7172
16.88	23.567
17.1	9.24766
17.32	23.2834
17.54	1.80951
17.76	19.3105
17.98	38.5877
18.2	31.3257
18.42	44.2648
18.64	29.4065
18.86	20.0476
19.08	6.41543
19.3	17.0394
19.52	9.78104
19.74	19.5426
19.96	26.4608
20.18	27.2402
20.4	15.8532
20.62	9.64833
20.84	4.20023
21.06	26.2491
21.28	22.5971
21.5	5.26298
21.72	18.4798
21.94	5.52443
22.16	4.48242
22.38	15.6465
22.6	2.25719
22.82	31.6637
23.04	14.2809
23.26	18.0426
23.48	6.57852
23.7	15.1928
23.92	15.0592
24.14	23.9673
24.36	5.63442
24.58	7.53758
24.8	12.3992
25.02	14.684
25.24	8.80642
25.46	21.4348
25.68	37.6088
25.9	20.917
26.12	12.0208
26.34	10.234
26.56	15.0689
26.78	15.5162
27	6.76157
27.22	7.75262
27.44	13.2678
27.66	10.807
27.88	11.801
28.1	1.83472
28.32	12.6986
28.54	3.29766
28.76	28.3309
28.98	9.23024
29.2	18.6767
29.42	47.6562
29.64	69.311
29.86	75.6948
30.08	59.5806
30.3	29.4465
30.52	36.5093
30.74	1.05495
30.96	2.22095
31.18	8.75019
31.4	25.2675
31.62	5.88315
31.84	14.5648
32.06	11.9199
32.28	43.286
32.5	14.7268
32.72	17.5763
32.94	0.881836
33.16	14.3988
33.38	10.3016
33.6	29.0168
33.82	22.6177
34.04	28.1216
34.26	7.44655
34.48	19.093
34.7	30.049
34.92	33.3402
35.14	35.7763
35.36	17.0499
35.58	1.8907
35.8	1.92177
36.02	15.48
36.24	10.6755
36.46	13.3384
36.68	12.8857
36.9	6.65612
37.12	2.89253
37.34	0.453995
37.56	7.71876
37.78	30.1839
38	17.1126
38.22	16.4033
38.44	18.7222
38.66	6.60115
38.88	14.4609
39.1	17.5113
39.32	4.51431
39.54	4.46
39.76	1.42071
39.98	20.931
40.2	15.9801
40.42	12.4405
40.64	24.0886
40.86	24.9667
41.08	1.02784
41.3	29.7735
41.52	23.1365
41.74	15.9062
41.96	13.8244
42.18	10.7673
42.4	17.5164
42.62	14.4554
42.84	9.38195
43.06	3.06837
43.28	13.1525
43.5	13.5566
43.72	12.8711
43.94	10.0042
44.16	4.6468
44.38	12.309
44.6	5.93195
44.82	4.82705
45.04	0.747944
45.26	4.49777
45.48	4.01783
45.7	12.6247
45.92	19.2749
46.14	14.0401
46.36	9.88612
46.58	16.7919
46.8	15.5479
47.02	8.38905
47.24	4.7286
47.46	1.11068
47.68	15.2988
47.9	18.1933
48.12	2.26032
48.34	7.48466
48.56	16.1356
48.78	20.3084
49	4.41137
49.22	4.66273
49.44	9.29467
49.66	11.1227
49.88	23.109
50.1	15.5736
50.32	6.03465
50.54	8.53481
50.76	13.5733
50.98	13.7097
51.2	13.3576
51.42	16.9433
51.64	0.921806
51.86	11.493
52.08	20.4431
52.3	8.10583
52.52	32.1169
52.74	9.20834
52.96	10.3812
53.18	13.8421
53.4	2.03883
53.62	10.4239
53.84	9.006
54.06	5.50428
54.28	17.9646
54.5	21.4418
54.72	11.9352
54.94	16.1396
55.16	1.58452
55.38	7.68753
55.6	24.3195
55.82	12.6767
56.04	15.4191
56.26	16.9745
56.48	6.79892
56.7	10.7913
56.92	8.35522
57.14	4.12887
57.36	19.82
57.58	27.9054
57.8	18.5067
58.02	17.7072
58.24	23.4469
58.46	13.3659
58.68	1.83015
58.9	11.4629
59.12	22.2328
59.34	13.5835
59.56	17.2108
59.78	23.5173
60	14.6143
60.22	4.05568
60.44	6.99094
60.66	7.53929
60.88	8.23062
61.1	14.7831
61.32	12.0191
61.54	1.51017
61.76	15.1302
61.98	7.97963
62.2	10.4573
62.42	7.75323
62.64	6.49391
62.86	4.55768
63.08	8.3144
63.3	7.5919
63.52	11.1795
63.74	5.84046
63.96	20.1341
64.18	14.2085
64.4	1.25242
64.62	6.07608
64.84	7.15897
65.06	10.9557
65.28	0.662695
65.5	10.8828
65.72	12.5336
65.94	19.8809
66.16	10.4787
66.38	13.5941
66.6	13.332
66.82	7.637
67.04	17.4294
67.26	15.4311
67.48	3.27018
67.7	8.56619
67.92	20.6861
68.14	4.83548
68.36	6.59567
68.58	18.6888
68.8	0.124125
69.02	5.26891
69.24	5.69598
69.46	5.25826
69.68	13.5738
69.9	11.7716
70.12	16.1219
70.34	4.28031
70.56	9.57631
70.78	5.65996
71	11.9829
71.22	12.1169
71.44	6.74191
71.66	17.3053
71.88	11.9413
72.1	7.94517
72.32	11.657
72.54	6.57705
72.76	5.39581
72.98	9.279
73.2	8.69191
73.42	13.5378
73.64	0.456289
73.86	2.43756
74.08	6.83497
74.3	12.0785
74.52	10.1771
74.74	9.93374
74.96	1.03613
75.18	12.2268
75.4	9.37047
75.62	6.08108
75.84	13.133
76.06	5.48194
76.28	8.38937
76.5	10.2249
76.72	8.61795
76.94	14.527
77.16	13.6188
77.38	9.65444
77.6	8.13787
77.82	9.07328
78.04	14.2815
78.26	14.2257
78.48	5.97792
78.7	10.0367
78.92	6.92835
79.14	6.92188
79.36	0.094158
79.58	17.4034
79.8	4.40007
80.02	11.8229
80.24	10.2086
80.46	4.03568
80.68	8.94794
80.9	9.89751
81.12	2.11686
81.34	17.0573
81.56	3.54744
81.78	24.0652
82	6.96669
82.22	4.91204
82.44	12.8118
82.66	6.50137
82.88	4.40211
83.1	4.75407
83.32	0.267485
83.54	6.72939
83.76	10.9893
83.98	18.3477
84.2	5.82195
84.42	2.96744
84.64	1.13792
84.86	2.43843
85.08	1.53025
85.3	6.6577
85.52	7.34391
85.74	9.3512
85.96	8.32715
86.18	1.12114
86.4	7.34352
86.62	7.85228
86.84	14.1755
87.06	10.4368
87.28	13.3915
87.5	10.3711
87.72	1.42614
87.94	0.55595
88.16	3.2788
88.38	6.80788
88.6	6.96837
88.82	12.1412
89.04	16.1401
89.26	0.931107
89.48	15.5881
89.7	8.43644
89.92	17.8899
