Measurement: Powder, Xray Data XY Processed
Mineral: Yugawaralite
Rruff sample: R060568
Ideal chemistry: Ca(Si_6_Al_2_)O_16_4H_2_O
Locality: Khandivali Quarry, near Bombay, India
Source: Michael Scott
Description: Colorless fragment
Diffraction sample description: Single crystal, powder profile is calculated
Measured chemistry: Ca_1.00_(Si_6.00_Al_2.00_)O_16_Â·4H_2_O; H_2_O estimated by difference
Cell parameters: a: 6.7198(6) b: 13.982(1) c: 10.0452(8) alpha: 90 beta: 111.223(5) gamma: 90 volume: 879.8(1) crystal system: monoclinic
x	intensity
5	0
5.22	0
5.44	0
5.66	0
5.88	0
6.1	0
6.32	4.779
6.54	0
6.76	0
6.98	0
7.2	0
7.42	0
7.64	0
7.86	0
8.08	0
8.3	0
8.52	0
8.74	0
8.96	0
9.18	0
9.4	0
9.62	0
9.84	0
10.06	0
10.28	0
10.5	0
10.72	0
10.94	0
11.16	0
11.38	5.793
11.6	0
11.82	0
12.04	0
12.26	0
12.48	0
12.7	3.649
12.92	0
13.14	0
13.36	0
13.58	0
13.8	0
14.02	0.11
14.24	0.002
14.46	0
14.68	0
14.9	0
15.12	0.119
15.34	0.523
15.56	0.025
15.78	3.223
16	0
16.22	0
16.44	0
16.66	0
16.88	0
17.1	0
17.32	0
17.54	0
17.76	0
17.98	0
18.2	0
18.42	0
18.64	0
18.86	6.745
19.08	77.088
19.3	0
19.52	0
19.74	0
19.96	6.679
20.18	5.186
20.4	0
20.62	21.467
20.84	0
21.06	0
21.28	9.838
21.5	0
21.72	0
21.94	0
22.16	0
22.38	0
22.6	0
22.82	5.819
23.04	0.359
23.26	0
23.48	0.696
23.7	1.869
23.92	0
24.14	0
24.36	0
24.58	0
24.8	0
25.02	0
25.24	0
25.46	0.001
25.68	0
25.9	0
26.12	0
26.34	0
26.56	0
26.78	0
27	2.495
27.22	4.883
27.44	6.519
27.66	8.012
27.88	1.813
28.1	0
28.32	1.334
28.54	0.695
28.76	0.171
28.98	0.03
29.2	63.845
29.42	2.035
29.64	0.001
29.86	1.213
30.08	0
30.3	0.258
30.52	1.145
30.74	18.601
30.96	0
31.18	2.996
31.4	0.229
31.62	0
31.84	0.513
32.06	0.143
32.28	7.596
32.5	0.012
32.72	0.077
32.94	8.906
33.16	2.071
33.38	4.932
33.6	1.002
33.82	7.934
34.04	2.592
34.26	0
34.48	1.211
34.7	0.244
34.92	1.368
35.14	0.724
35.36	0
35.58	0.273
35.8	1
36.02	0
36.24	3.25
36.46	0.006
36.68	0
36.9	0.092
37.12	1.74
37.34	2.013
37.56	0.186
37.78	0.562
38	4.842
38.22	0.072
38.44	3.423
38.66	1.97
38.88	0.426
39.1	0.003
39.32	0.412
39.54	0
39.76	0.399
39.98	0.03
40.2	0.001
40.42	1.052
40.64	0.53
40.86	2.018
41.08	1.79
41.3	0.362
41.52	1.27
41.74	0
41.96	1.809
42.18	1.697
42.4	0.679
42.62	0.737
42.84	1.261
43.06	0.439
43.28	3.492
43.5	0.288
43.72	0.256
43.94	0
44.16	0
44.38	0.711
44.6	0.098
44.82	0.023
45.04	1.305
45.26	1.53
45.48	0.002
45.7	0.428
45.92	1.78
46.14	0.224
46.36	3.274
46.58	0.771
46.8	0.419
47.02	5.473
47.24	0.059
47.46	0.12
47.68	1.62
47.9	6.374
48.12	0.184
48.34	1.82
48.56	2.236
48.78	0.057
49	0.208
49.22	0.036
49.44	0.607
49.66	0.734
49.88	0.18
50.1	0.954
50.32	0.51
50.54	0.004
50.76	0.776
50.98	0.209
51.2	0.756
51.42	0
51.64	0.027
51.86	0.897
52.08	0.756
52.3	1.423
52.52	1.226
52.74	0.198
52.96	0.86
53.18	4.242
53.4	0.477
53.62	0.147
53.84	0.44
54.06	1.648
54.28	1.222
54.5	2.625
54.72	0.721
54.94	0.87
55.16	1.372
55.38	0.197
55.6	0.787
55.82	0.451
56.04	0.174
56.26	0.881
56.48	0.495
56.7	0.528
56.92	0.831
57.14	1.759
57.36	0.794
57.58	0.509
57.8	0.228
58.02	0.777
58.24	0.401
58.46	1.88
58.68	1.717
58.9	0.792
59.12	0.556
59.34	0.456
59.56	0.91
59.78	0.437
60	3.415
60.22	1.603
60.44	1.881
60.66	1.188
60.88	0.175
61.1	0.24
61.32	0.871
61.54	0.076
61.76	0.282
61.98	0.867
62.2	0.672
62.42	1.3
62.64	0.679
62.86	1.001
63.08	1.012
63.3	0.776
63.52	0.377
63.74	0.382
63.96	1.17
64.18	0.568
64.4	0.092
64.62	0.024
64.84	0.067
65.06	2.913
65.28	2.272
65.5	0.49
65.72	0.132
65.94	0.113
66.16	0.07
66.38	0.126
66.6	1.143
66.82	1.117
67.04	2.537
67.26	1.14
67.48	0.578
67.7	0.654
67.92	0.933
68.14	1.5
68.36	0.603
68.58	0.409
68.8	0.042
69.02	0.41
69.24	0.57
69.46	0.382
69.68	1.526
69.9	0.888
70.12	0.621
70.34	0.136
70.56	0.717
70.78	0.578
71	0.947
71.22	1.038
71.44	0.687
71.66	2.064
71.88	0.813
72.1	0.016
72.32	0.001
72.54	0.916
72.76	0.539
72.98	0.312
73.2	0.54
73.42	1.722
73.64	1.204
73.86	1.659
74.08	1.117
74.3	0.234
74.52	0.373
74.74	0.298
74.96	0.798
75.18	0.471
75.4	0.468
75.62	0.581
75.84	0.619
76.06	1.239
76.28	0.536
76.5	0.127
76.72	0.156
76.94	0.213
77.16	0.452
77.38	1.197
77.6	1.21
77.82	1.652
78.04	0.999
78.26	0.224
78.48	0.317
78.7	0.452
78.92	0.294
79.14	0.607
79.36	1.078
79.58	1.129
79.8	0.956
80.02	0.385
80.24	0.935
80.46	0.329
80.68	0.216
80.9	0.139
81.12	1.123
81.34	1.373
81.56	0.43
81.78	0.228
82	0.074
82.22	0.043
82.44	0.138
82.66	0.69
82.88	0.253
83.1	0.599
83.32	0.934
83.54	0.247
83.76	0.06
83.98	0.297
84.2	1.1
84.42	0.528
84.64	0.126
84.86	0.644
85.08	0.325
85.3	0.285
85.52	0.552
85.74	0.176
85.96	0.293
86.18	0.471
86.4	0.16
86.62	0.133
86.84	0.074
87.06	0.182
87.28	0.307
87.5	0.314
87.72	0.175
87.94	0.336
88.16	0.1
88.38	0.115
88.6	0.627
88.82	0.289
89.04	0.255
89.26	0.023
89.48	0.374
89.7	0.379
89.92	0.039
