Measurement: Powder, Xray Data XY Processed
Mineral: Yugawaralite
Rruff sample: R050407
Ideal chemistry: Ca(Si_6_Al_2_)O_16_4H_2_O
Locality: Malad quarry, Mumbai, Maharashtra, India
Source: G.R. Rossman
Description: Group of colorless flat tabular crystals
Diffraction sample description: Powder
Measured chemistry: Ca_1.00_(Si_6.00_Al_2.00_)O_16_Â·4H_2_O
Cell parameters: a: 6.7241(5) b: 13.9970(9) c: 10.0503(4) alpha: 90. beta: 111.186(4) gamma: 90. volume: 881.98(6) crystal system: monoclinic
x	intensity
5	0
5.22	9.93831
5.44	10.3462
5.66	13.3907
5.88	9.62027
6.1	13.2057
6.32	24.9755
6.54	13.4033
6.76	4.75676
6.98	14.8654
7.2	12.1662
7.42	8.88288
7.64	11.3151
7.86	4.75194
8.08	3.22181
8.3	11.4257
8.52	3.83131
8.74	9.00216
8.96	4.48883
9.18	3.97951
9.4	15.429
9.62	3.77816
9.84	14.7448
10.06	5.94157
10.28	2.09596
10.5	13.1832
10.72	9.62102
10.94	0.036305
11.16	1.25718
11.38	35.191
11.6	8.98834
11.82	1.92881
12.04	10.6014
12.26	6.53494
12.48	13.4765
12.7	215.446
12.92	12.1791
13.14	5.99144
13.36	10.8573
13.58	6.95812
13.8	10.938
14.02	4.80833
14.24	14.5916
14.46	12.9399
14.68	9.91312
14.9	8.85592
15.12	14.0196
15.34	301.46
15.56	13.625
15.78	5.24657
16	4.29542
16.22	5.33647
16.44	6.02364
16.66	12.3839
16.88	5.79976
17.1	0.708861
17.32	9.54658
17.54	2.23623
17.76	2.51183
17.98	0.067747
18.2	45.6404
18.42	9.16039
18.64	12.1555
18.86	18.2175
19.08	329.608
19.3	16.195
19.52	0.833624
19.74	3.22625
19.96	11.4309
20.18	83.6834
20.4	6.1342
20.62	15.7957
20.84	27.5983
21.06	3.73129
21.28	70.5613
21.5	3.1994
21.72	6.34058
21.94	8.65517
22.16	5.13099
22.38	6.20084
22.6	9.28704
22.82	9.22678
23.04	18.1681
23.26	5.74057
23.48	5.68609
23.7	94.438
23.92	7.40132
24.14	1.4166
24.36	1.42301
24.58	4.77964
24.8	11.206
25.02	20.7126
25.24	26.7448
25.46	14.5113
25.68	13.4601
25.9	7.19826
26.12	5.57456
26.34	9.07095
26.56	0.493128
26.78	0.074178
27	33.0636
27.22	16.4132
27.44	7.44408
27.66	128.892
27.88	7.68005
28.1	1.30424
28.32	8.13594
28.54	15.2232
28.76	10.2699
28.98	7.01204
29.2	162.829
29.42	56.542
29.64	7.50208
29.86	18.7683
30.08	6.05553
30.3	7.84775
30.52	40.9692
30.74	29.7375
30.96	23.9453
31.18	69.3967
31.4	42.7076
31.62	4.26177
31.84	6.51472
32.06	2.61396
32.28	2.67687
32.5	36.8201
32.72	0.079374
32.94	14.9493
33.16	30.6487
33.38	28.3221
33.6	1.29794
33.82	21.5735
34.04	43.1532
34.26	4.57331
34.48	10.2462
34.7	3.56686
34.92	20.054
35.14	19.0098
35.36	9.33616
35.58	5.52955
35.8	20.6693
36.02	7.50727
36.24	5.56539
36.46	12.5628
36.68	2.51457
36.9	10.0468
37.12	19.1336
37.34	5.66062
37.56	7.18724
37.78	6.10733
38	6.54121
38.22	6.80899
38.44	48.487
38.66	15.9017
38.88	13.6
39.1	9.82033
39.32	13.9651
39.54	2.97028
39.76	7.98916
39.98	4.96189
40.2	3.74439
40.42	8.1755
40.64	11.9782
40.86	8.64299
41.08	6.15911
41.3	12.2312
41.52	3.21064
41.74	0.155489
41.96	6.03804
42.18	5.84308
42.4	8.64624
42.62	2.14292
42.84	8.43207
43.06	2.80653
43.28	38.6093
43.5	7.6
43.72	11.7494
43.94	4.35532
44.16	34.1652
44.38	17.9984
44.6	10.8795
44.82	7.93933
45.04	23.4114
45.26	35.5997
45.48	6.72087
45.7	7.8891
45.92	0.208471
46.14	8.71481
46.36	10.2663
46.58	28.4426
46.8	9.29729
47.02	3.59587
47.24	20.618
47.46	0.457324
47.68	12.2402
47.9	21.9245
48.12	61.0648
48.34	20.6242
48.56	13.8746
48.78	12.4422
49	5.03573
49.22	7.28655
49.44	7.75061
49.66	10.2273
49.88	13.4094
50.1	2.88114
50.32	8.39132
50.54	7.53494
50.76	10.6064
50.98	5.596
51.2	21.6311
51.42	8.45391
51.64	1.47839
51.86	13.1461
52.08	14.06
52.3	8.99659
52.52	10.2839
52.74	8.6864
52.96	0.244061
53.18	10.9831
53.4	14.9566
53.62	7.72433
53.84	2.56668
54.06	9.37509
54.28	18.0454
54.5	7.11962
54.72	1.99817
54.94	2.87145
55.16	5.18877
55.38	3.21445
55.6	8.40659
55.82	4.52619
56.04	1.7711
56.26	3.96187
56.48	11.5083
56.7	0.250213
56.92	8.83512
57.14	4.12304
57.36	6.57046
57.58	2.53241
57.8	2.45009
58.02	5.44335
58.24	6.32147
58.46	0.67581
58.68	7.0583
58.9	13.5821
59.12	28.7896
59.34	18.6203
59.56	11.3415
59.78	2.9234
60	3.24469
60.22	8.16931
60.44	2.20528
60.66	5.2536
60.88	18.2249
61.1	4.51973
61.32	12.7211
61.54	4.27156
61.76	16.9693
61.98	9.07971
62.2	3.16394
62.42	1.07901
62.64	2.13137
62.86	13.2986
63.08	9.36535
63.3	14.3747
63.52	5.10395
63.74	4.64344
63.96	2.42663
64.18	16.6702
64.4	0.075299
64.62	1.66186
64.84	10.4129
65.06	5.79401
65.28	15.7822
65.5	3.91043
65.72	12.7037
65.94	7.91378
66.16	4.68449
66.38	2.53225
66.6	5.40489
66.82	2.34547
67.04	8.28398
67.26	13.3075
67.48	2.91071
67.7	0.13506
67.92	8.56488
68.14	1.30761
68.36	3.88334
68.58	2.93513
68.8	9.02118
69.02	3.04217
69.24	2.76322
69.46	4.66926
69.68	4.79318
69.9	7.89844
70.12	19.7173
70.34	23.0791
70.56	10.0913
70.78	1.04571
71	6.96656
71.22	1.52598
71.44	15.646
71.66	4.93609
71.88	2.87937
72.1	4.57866
72.32	2.30842
72.54	5.21681
72.76	1.14276
72.98	0.040231
73.2	16.0805
73.42	15.6582
73.64	15.6766
73.86	8.98823
74.08	10.8961
74.3	11.0851
74.52	3.20234
74.74	2.38893
74.96	0.433934
75.18	1.69748
75.4	5.10651
75.62	9.25252
75.84	7.75687
76.06	7.53494
76.28	5.28245
76.5	5.12298
76.72	6.9592
76.94	0.853922
77.16	7.69358
77.38	1.56101
77.6	3.43815
77.82	6.14177
78.04	10.164
78.26	6.91947
78.48	16.9314
78.7	0.813089
78.92	3.09178
79.14	2.31272
79.36	0.502429
79.58	12.7381
79.8	9.15781
80.02	6.53541
80.24	3.55225
80.46	3.54577
80.68	5.47088
80.9	4.60334
81.12	7.69977
81.34	5.88166
81.56	3.02647
81.78	1.22153
82	6.22853
82.22	10.2618
82.44	1.79981
82.66	4.24532
82.88	5.26851
83.1	7.27065
83.32	5.29546
83.54	9.60708
83.76	10.4315
83.98	5.38651
84.2	4.3098
84.42	5.52743
84.64	3.41057
84.86	4.50776
85.08	5.62274
85.3	5.04795
85.52	3.33826
85.74	5.41837
85.96	5.35375
86.18	4.54213
86.4	10.5785
86.62	4.69152
86.84	8.62224
87.06	9.79189
87.28	5.75851
87.5	0.789517
87.72	5.49522
87.94	5.32976
88.16	0.610996
88.38	7.44739
88.6	2.39877
88.82	13.4242
89.04	12.449
89.26	2.42787
89.48	5.65183
89.7	7.85053
89.92	1.83541
