Measurement: Powder, Xray Data XY Processed
Mineral: Yuksporite
Rruff sample: R060818
Ideal chemistry: K_4_(Ca,Na)_14_(Sr,Ba)_2_([box],Mn^2+^,Fe^3+^)(Ti^4+^,Nb^5+^)_4_(O,OH)_4_(Si_6_O_17_)_2_(Si_2_O_7_)_3_(H_2_O,OH)_3_
Locality: Chibiny, Kola Peninsula, Russia
Source: Bob Jenkins
Description: Aggregate of tan colored thin lamellae formed from parallel fibers
Diffraction sample description: Powder
Cell parameters: a: 7.1302(6) b: 24.924(2) c: 17.073(5) alpha: 90 beta: 102.14(3) gamma: 90 volume: 2966.3(7) crystal system: monoclinic
x	intensity
5	0
5.22	17.8519
5.44	7.27888
5.66	9.78801
5.88	5.03215
6.1	6.05662
6.32	30.6225
6.54	25.8273
6.76	9.20558
6.98	33.8246
7.2	24.6516
7.42	17.0468
7.64	9.01528
7.86	9.79196
8.08	2.41446
8.3	4.4618
8.52	7.81562
8.74	7.49744
8.96	6.19428
9.18	8.58901
9.4	16.2354
9.62	3.42135
9.84	8.01623
10.06	2.57192
10.28	7.85088
10.5	5.67578
10.72	10.5224
10.94	10.9967
11.16	9.88087
11.38	2.55415
11.6	9.12954
11.82	14.1762
12.04	12.9408
12.26	11.2878
12.48	16.4811
12.7	11.622
12.92	11.3965
13.14	10.8777
13.36	11.1073
13.58	5.51637
13.8	7.1376
14.02	7.12872
14.24	60.9099
14.46	6.519
14.68	4.81804
14.9	5.9912
15.12	19.6818
15.34	15.5902
15.56	2.99175
15.78	8.00281
16	23.9412
16.22	3.74531
16.44	8.45048
16.66	7.4786
16.88	12.7306
17.1	7.5729
17.32	0.370897
17.54	1.48058
17.76	19.0411
17.98	5.91036
18.2	6.05103
18.42	8.09009
18.64	2.22439
18.86	9.37003
19.08	15.8537
19.3	10.8538
19.52	8.85334
19.74	9.04673
19.96	0.036654
20.18	18.1793
20.4	10.9015
20.62	4.51309
20.84	4.51479
21.06	16.8776
21.28	16.2642
21.5	1.23622
21.72	7.9936
21.94	5.02496
22.16	5.99057
22.38	6.92769
22.6	10.84
22.82	1.92258
23.04	2.92581
23.26	8.04589
23.48	6.18138
23.7	8.27444
23.92	22.9891
24.14	3.441
24.36	6.16142
24.58	2.87252
24.8	11.4929
25.02	3.72728
25.24	22.577
25.46	5.83357
25.68	31.2628
25.9	4.45367
26.12	4.59908
26.34	7.7126
26.56	2.9663
26.78	11.9544
27	10.5079
27.22	24.0065
27.44	38.7378
27.66	0.705362
27.88	7.05788
28.1	23.4873
28.32	3.64664
28.54	0.874355
28.76	21.1803
28.98	18.2455
29.2	10.947
29.42	44.0589
29.64	12.6759
29.86	67.8375
30.08	16.2945
30.3	3.81092
30.52	7.1076
30.74	17.6149
30.96	5.36116
31.18	12.5704
31.4	11.6872
31.62	3.53246
31.84	10.9743
32.06	14.1215
32.28	69.1073
32.5	10.7012
32.72	42.4573
32.94	12.1999
33.16	27.2586
33.38	2.55346
33.6	19.1867
33.82	7.11913
34.04	0.462353
34.26	7.21221
34.48	3.95169
34.7	7.95711
34.92	18.6141
35.14	20.7897
35.36	20.2685
35.58	3.49591
35.8	0.998016
36.02	9.65266
36.24	2.77337
36.46	9.52373
36.68	6.62208
36.9	24.0635
37.12	8.21028
37.34	4.3242
37.56	7.91085
37.78	10.1279
38	6.17404
38.22	3.51741
38.44	10.2098
38.66	13.1686
38.88	8.1287
39.1	7.31445
39.32	10.9861
39.54	5.97572
39.76	7.57042
39.98	6.45883
40.2	5.05687
40.42	3.1514
40.64	5.7917
40.86	3.59454
41.08	17.805
41.3	21.5413
41.52	3.95221
41.74	2.79737
41.96	9.17674
42.18	19.6313
42.4	2.84144
42.62	5.95061
42.84	6.85012
43.06	18.2396
43.28	9.80656
43.5	4.46056
43.72	6.44354
43.94	3.98434
44.16	15.2894
44.38	1.21505
44.6	10.0654
44.82	9.52286
45.04	9.92272
45.26	13.0225
45.48	14.2329
45.7	1.48779
45.92	7.47255
46.14	1.62793
46.36	15.9629
46.58	4.06012
46.8	13.5238
47.02	8.67988
47.24	17.7344
47.46	8.38472
47.68	4.89826
47.9	2.023
48.12	17.8024
48.34	12.0106
48.56	7.44594
48.78	8.47685
49	22.6305
49.22	13.7218
49.44	3.82834
49.66	3.82866
49.88	4.75368
50.1	6.27702
50.32	11.2663
50.54	11.2902
50.76	1.69009
50.98	7.00592
51.2	21.3861
51.42	12.2527
51.64	7.9251
51.86	9.98044
52.08	3.86137
52.3	5.85806
52.52	4.8255
52.74	15.0187
52.96	3.14395
53.18	9.03022
53.4	2.87646
53.62	15.7341
53.84	23.1277
54.06	12.4359
54.28	9.66842
54.5	9.76
54.72	10.0749
54.94	9.94439
55.16	5.23649
55.38	16.7395
55.6	11.1147
55.82	5.51185
56.04	11.3685
56.26	3.51112
56.48	9.59659
56.7	5.62747
56.92	3.91853
57.14	13.8843
57.36	13.6089
57.58	1.41296
57.8	7.25197
58.02	2.15916
58.24	9.09265
58.46	6.06304
58.68	16.0841
58.9	2.01598
59.12	3.01998
59.34	1.81934
59.56	20.4681
59.78	15.6804
60	0.633806
60.22	16.6777
60.44	6.71677
60.66	10.8293
60.88	14.8501
61.1	6.8262
61.32	9.82213
61.54	5.8225
61.76	3.87895
61.98	6.5231
62.2	2.28961
62.42	16.5925
62.64	6.69849
62.86	0.892369
63.08	4.84066
63.3	9.96441
63.52	8.49774
63.74	3.70067
63.96	0.193896
64.18	20.0357
64.4	10.9064
64.62	8.81614
64.84	1.16351
65.06	1.9681
65.28	4.83315
65.5	14.7941
65.72	14.7303
65.94	13.3187
66.16	4.20803
66.38	1.19278
66.6	3.98226
66.82	3.2772
67.04	5.33745
67.26	5.70385
67.48	11.6206
67.7	7.80586
67.92	2.89752
68.14	2.02447
68.36	3.07579
68.58	4.19257
68.8	7.23946
69.02	15.4524
69.24	4.43445
69.46	6.21812
69.68	7.85305
69.9	12.0535
70.12	0.064582
70.34	2.16915
70.56	1.56272
70.78	10.6295
71	8.64049
71.22	7.7072
71.44	3.61822
71.66	11.7343
71.88	10.9703
72.1	6.03328
72.32	4.76346
72.54	5.99649
72.76	10.0861
72.98	3.88235
73.2	2.01647
73.42	12.29
73.64	16.3001
73.86	8.25839
74.08	2.87466
74.3	5.75138
74.52	3.67265
74.74	6.82404
74.96	5.66479
75.18	4.72212
75.4	15.6366
75.62	5.78091
75.84	4.4111
76.06	5.61704
76.28	0.133853
76.5	2.08291
76.72	9.09785
76.94	5.43181
77.16	5.40047
77.38	14.7263
77.6	2.52414
77.82	6.21347
78.04	12.4014
78.26	11.3689
78.48	5.14602
78.7	7.04466
78.92	8.27438
79.14	7.25947
79.36	4.94109
79.58	8.76331
79.8	3.53213
80.02	13.6609
80.24	3.96604
80.46	0.050257
80.68	4.20137
80.9	6.35111
81.12	1.56571
81.34	1.55373
81.56	13.696
81.78	9.02258
82	5.11017
82.22	9.19633
82.44	5.08311
82.66	3.85458
82.88	19.7573
83.1	11.6231
83.32	4.44871
83.54	5.94312
83.76	3.81558
83.98	7.4941
84.2	6.40468
84.42	2.3831
84.64	2.36057
84.86	1.53265
85.08	0.393904
85.3	6.31735
85.52	1.20972
85.74	4.25244
85.96	6.43782
86.18	10.5998
86.4	1.7128
86.62	5.73956
86.84	7.71127
87.06	6.8174
87.28	6.72518
87.5	6.85512
87.72	2.92224
87.94	9.26824
88.16	5.61792
88.38	16.6924
88.6	6.02059
88.82	5.13849
89.04	7.3783
89.26	10.633
89.48	1.26616
89.7	3.0705
89.92	2.39462
