Measurement: Powder, Xray Data XY Processed
Mineral: Zabuyelite
Rruff sample: R100211
Ideal chemistry: Li_2_CO_3_
Locality: Synthetic, purchased from Sigma-Aldrich
Source: Michael Scott
Description: White powder
Diffraction sample description: Powder
Cell parameters: a: 8.3597(3) b: 4.9746(2) c: 6.1982(3) alpha: 90 beta: 114.725(5) gamma: 90 volume: 234.13(1) crystal system: monoclinic
x	intensity
5	0
5.22	44.6681
5.44	13.0423
5.66	25.395
5.88	46.5218
6.1	12.6463
6.32	8.78488
6.54	24.6529
6.76	30.8222
6.98	22.1697
7.2	33.5227
7.42	9.42188
7.64	31.6834
7.86	28.5526
8.08	20.788
8.3	19.9199
8.52	24.2633
8.74	36.88
8.96	46.6125
9.18	11.889
9.4	11.9113
9.62	58.9395
9.84	35.9889
10.06	21.5917
10.28	26.3488
10.5	52.046
10.72	3.66907
10.94	14.976
11.16	7.38654
11.38	17.4173
11.6	4.95075
11.82	36.4179
12.04	27.8042
12.26	47.0489
12.48	70.4757
12.7	37.3216
12.92	31.1799
13.14	44.8699
13.36	26.8407
13.58	41.6274
13.8	29.0917
14.02	49.1665
14.24	57.1087
14.46	10.6831
14.68	36.6563
14.9	54.3111
15.12	4.19577
15.34	13.9471
15.56	36.5238
15.78	16.2496
16	43.7672
16.22	68.8513
16.44	39.502
16.66	28.5681
16.88	43.1445
17.1	24.5811
17.32	36.3116
17.54	37.2289
17.76	72.0247
17.98	0.550201
18.2	30.3411
18.42	29.8303
18.64	12.1685
18.86	41.8745
19.08	28.4627
19.3	40.9938
19.52	34.9962
19.74	18.2739
19.96	21.1355
20.18	41.417
20.4	3.49628
20.62	39.6993
20.84	43.5449
21.06	105.603
21.28	7058.86
21.5	121.313
21.72	63.1996
21.94	5.41066
22.16	20.3534
22.38	23.3274
22.6	36.5098
22.82	18.0108
23.04	26.2359
23.26	169.617
23.48	352.94
23.7	5.80295
23.92	31.9469
24.14	24.2397
24.36	0.371628
24.58	56.1766
24.8	33.2955
25.02	43.5366
25.24	12.1258
25.46	55.0097
25.68	65.3285
25.9	6.25531
26.12	23.9514
26.34	42.0094
26.56	52.0024
26.78	40.6324
27	34.9687
27.22	32.0167
27.44	88.4597
27.66	35.8557
27.88	8.33124
28.1	63.6116
28.32	15.0016
28.54	96.1732
28.76	1.73398
28.98	23.6686
29.2	72.8868
29.42	1303.44
29.64	60.4528
29.86	25.6046
30.08	11.25
30.3	120.242
30.52	4339
30.74	360.392
30.96	18.3262
31.18	30.9757
31.4	87.2098
31.62	2450.84
31.84	1843.93
32.06	76.6242
32.28	34.3784
32.5	25.4496
32.72	12.7045
32.94	1.86084
33.16	37.1783
33.38	23.0712
33.6	51.8942
33.82	109.909
34.04	1674.49
34.26	119.628
34.48	39.9729
34.7	8.28226
34.92	3.39291
35.14	20.7002
35.36	4.83542
35.58	20.6477
35.8	29.3671
36.02	1156.56
36.24	22.1896
36.46	30.6085
36.68	89.8083
36.9	2021.52
37.12	155.132
37.34	35.7404
37.56	24.6861
37.78	12.1343
38	29.4289
38.22	39.5315
38.44	19.302
38.66	21.3059
38.88	33.8815
39.1	20.3792
39.32	58.4678
39.54	835.523
39.76	138.07
39.98	380.666
40.2	44.7915
40.42	26.5261
40.64	37.7989
40.86	9.99181
41.08	10.4241
41.3	5.05313
41.52	6.12349
41.74	17.6704
41.96	13.4855
42.18	8.74461
42.4	37.4774
42.62	214.428
42.84	42.5021
43.06	5.39424
43.28	39.5064
43.5	250.352
43.72	52.9197
43.94	2.88759
44.16	16.8821
44.38	41.867
44.6	21.9219
44.82	34.4237
45.04	82.3874
45.26	14.704
45.48	1.63689
45.7	13.4256
45.92	27.3957
46.14	29.6796
46.36	29.5185
46.58	24.5118
46.8	28.2162
47.02	21.2863
47.24	7.52594
47.46	14.6155
47.68	22.8986
47.9	80.5493
48.12	14.2408
48.34	20.5886
48.56	162.425
48.78	511.242
49	55.6667
49.22	16.7431
49.44	11.4556
49.66	14.0179
49.88	16.8152
50.1	48.3156
50.32	105.031
50.54	34.7299
50.76	5.06396
50.98	2.27914
51.2	1.30114
51.42	7.53078
51.64	20.5094
51.86	5.97222
52.08	1.38823
52.3	19.2991
52.52	18.7024
52.74	6.75015
52.96	40.1943
53.18	31.9555
53.4	31.1431
53.62	10.9691
53.84	23.6326
54.06	26.4147
54.28	12.5838
54.5	14.1275
54.72	11.2807
54.94	55.5721
55.16	14.9031
55.38	17.0618
55.6	27.8667
55.82	25.279
56.04	8.28997
56.26	6.71725
56.48	22.5617
56.7	213.837
56.92	54.7048
57.14	5.10855
57.36	4.25443
57.58	53.1624
57.8	130.69
58.02	56.6266
58.24	96.2733
58.46	79.7796
58.68	134.875
58.9	208.531
59.12	99.3563
59.34	40.6379
59.56	184.453
59.78	169.203
60	19.571
60.22	10.144
60.44	13.1759
60.66	12.5317
60.88	48.3775
61.1	124.353
61.32	184.303
61.54	76.3693
61.76	33.9673
61.98	20.4628
62.2	10.9057
62.42	11.199
62.64	20.8915
62.86	17.6242
63.08	36.6855
63.3	119.624
63.52	140.016
63.74	51.3952
63.96	35.1713
64.18	19.6198
64.4	14.8185
64.62	7.03204
64.84	25.5279
65.06	13.47
65.28	48.3536
65.5	64.6108
65.72	18.4653
65.94	4.68024
66.16	4.15778
66.38	21.1833
66.6	2.58791
66.82	7.44842
67.04	41.2813
67.26	55.0437
67.48	27.2091
67.7	25.8924
67.92	6.71375
68.14	42.7961
68.36	18.5873
68.58	0.245163
68.8	18.0326
69.02	31.8478
69.24	22.2447
69.46	46.3058
69.68	1.12929
69.9	13.2584
70.12	20.6336
70.34	27.0839
70.56	32.2077
70.78	8.14536
71	15.2989
71.22	14.205
71.44	4.16808
71.66	26.3223
71.88	57.233
72.1	21.6343
72.32	19.2816
72.54	33.8621
72.76	22.572
72.98	1.32007
73.2	18.4817
73.42	32.4361
73.64	64.306
73.86	103.3
74.08	76.1413
74.3	20.0862
74.52	6.48611
74.74	23.3638
74.96	62.9286
75.18	31.2105
75.4	32.5584
75.62	14.6012
75.84	12.0658
76.06	17.6551
76.28	21.3092
76.5	0.929375
76.72	10.3471
76.94	10.9058
77.16	33.0116
77.38	33.2146
77.6	11.5912
77.82	11.4456
78.04	3.25992
78.26	11.1084
78.48	2.16708
78.7	14.5379
78.92	15.0209
79.14	27.7979
79.36	1.58488
79.58	5.52617
79.8	12.3452
80.02	21.9975
80.24	29.6438
80.46	17.9919
80.68	26.5223
80.9	24.4493
81.12	12.0854
81.34	33.6037
81.56	7.29149
81.78	42.1315
82	17.8075
82.22	29.2454
82.44	10.0654
82.66	4.58794
82.88	14.1477
83.1	10.8093
83.32	6.56991
83.54	28.9132
83.76	23.014
83.98	10.7015
84.2	0.187752
84.42	23.169
84.64	6.4789
84.86	20.3819
85.08	39.5371
85.3	14.3461
85.52	25.5946
85.74	9.89621
85.96	7.99822
86.18	44.8312
86.4	50.0533
86.62	37.0281
86.84	8.04408
87.06	1.59
87.28	5.41943
87.5	26.3612
87.72	10.4242
87.94	5.47727
88.16	8.55627
88.38	41.5859
88.6	13.03
88.82	20.0461
89.04	9.77626
89.26	10.8361
89.48	9.28869
89.7	9.46592
89.92	8.96642
