Measurement: Powder, Xray Data XY Processed
Mineral: Zalesiite
Rruff sample: R060228
Ideal chemistry: Cu^2+^_6_Ca(As^5+^O_4_)_2_(As^5+^O_3_OH)(OH)_6_3H_2_O
Locality: Hilarion mine, near Kamareza, Laurium, Attica Penninsula, Greece
Source: Michael Scott
Description: Radiating light blue acicular crystals
Diffraction sample description: Single crystal, powder profile is calculated
Measured chemistry: (Ca_0.53_La_0.22_Nd_0.14_Y_0.11_)_Σ=1_(Cu^2+^_5.55_Fe_0.25_Zn_0.20_)_Σ=6_(As_1.00_O_4_)_2_(As_1.00_O_3.47_(OH)_0.53_)(OH)_6_·3H_2_O; OH estimated by charge balance; H_2_O by difference;
Cell parameters: a: 13.63(2) b: 13.63(2) c: 5.929(8) alpha: 90 beta: 90 gamma: 120 volume: 954(2) crystal system: hexagonal
x	intensity
5	0
5.22	0
5.44	0
5.66	0
5.88	0
6.1	0
6.32	0
6.54	0
6.76	0
6.98	0
7.2	0
7.42	4.285
7.64	0
7.86	0
8.08	0
8.3	0
8.52	0
8.74	0
8.96	0
9.18	0
9.4	0
9.62	0
9.84	0
10.06	0
10.28	0
10.5	0
10.72	0
10.94	0
11.16	0
11.38	0
11.6	0
11.82	0
12.04	0
12.26	0
12.48	0
12.7	0
12.92	0.016
13.14	0
13.36	0
13.58	0
13.8	0
14.02	0
14.24	0
14.46	0
14.68	0
14.9	0
15.12	0
15.34	0
15.56	0
15.78	0
16	0
16.22	0
16.44	0
16.66	0.141
16.88	0
17.1	0
17.32	0
17.54	0
17.76	0
17.98	0
18.2	0
18.42	0
18.64	0
18.86	0
19.08	0
19.3	0
19.52	0
19.74	0.013
19.96	3.28
20.18	0
20.4	0
20.62	0
20.84	0
21.06	0
21.28	1.639
21.5	0
21.72	0
21.94	0
22.16	0
22.38	0
22.6	1.286
22.82	0
23.04	0
23.26	0
23.48	0
23.7	0
23.92	0
24.14	0
24.36	0
24.58	0
24.8	0
25.02	7.462
25.24	0
25.46	0
25.68	0
25.9	0
26.12	3.533
26.34	0
26.56	0
26.78	0
27	0
27.22	5.935
27.44	0
27.66	0
27.88	0
28.1	0
28.32	0
28.54	0
28.76	0
28.98	0
29.2	0
29.42	0
29.64	0
29.86	0
30.08	0.014
30.3	7.383
30.52	0
30.74	0
30.96	0
31.18	2.963
31.4	0
31.62	0
31.84	0
32.06	0
32.28	0
32.5	0
32.72	0
32.94	1.356
33.16	2.012
33.38	0
33.6	0
33.82	0.137
34.04	0.068
34.26	0
34.48	0
34.7	0.04
34.92	2.085
35.14	0
35.36	0
35.58	0
35.8	0
36.02	0
36.24	0.019
36.46	9.867
36.68	0
36.9	0
37.12	0
37.34	0
37.56	0
37.78	0
38	0.048
38.22	0.011
38.44	0
38.66	0
38.88	0
39.1	0
39.32	0
39.54	0
39.76	0.028
39.98	0
40.2	0.019
40.42	0.911
40.64	0
40.86	0
41.08	0.387
41.3	0.015
41.52	0
41.74	0
41.96	0
42.18	0
42.4	0
42.62	2.035
42.84	0.002
43.06	0
43.28	0.931
43.5	0.014
43.72	0
43.94	0
44.16	0
44.38	0
44.6	0
44.82	0
45.04	0
45.26	0.253
45.48	0.387
45.7	0
45.92	0
46.14	0.232
46.36	0
46.58	0.009
46.8	0.938
47.02	0.001
47.24	0
47.46	0
47.68	0
47.9	0.142
48.12	0.027
48.34	0
48.56	0.213
48.78	0.001
49	0
49.22	0.001
49.44	0.295
49.66	0
49.88	0
50.1	0
50.32	0
50.54	1.028
50.76	0.549
50.98	0
51.2	3.566
51.42	0.185
51.64	0.001
51.86	0.006
52.08	0
52.3	0
52.52	0
52.74	0
52.96	0.031
53.18	1.165
53.4	0
53.62	0.143
53.84	0.122
54.06	0.006
54.28	0.255
54.5	0.388
54.72	0
54.94	0
55.16	0
55.38	0
55.6	0
55.82	0
56.04	2.04
56.26	0.744
56.48	0
56.7	1.519
56.92	0.151
57.14	0
57.36	0
57.58	0.001
57.8	1.346
58.02	0.195
58.24	0
58.46	0.277
58.68	0.016
58.9	0.001
59.12	0.091
59.34	0
59.56	0
59.78	0
60	0.088
60.22	0.567
60.44	0
60.66	0
60.88	0
61.1	0.07
61.32	0.072
61.54	0.002
61.76	0
61.98	0
62.2	0.061
62.42	0.108
62.64	1.394
62.86	1.792
63.08	0.443
63.3	0.091
63.52	0.112
63.74	0.002
63.96	0
64.18	0
64.4	0.087
64.62	0.745
64.84	0.053
65.06	0.267
65.28	0.061
65.5	0
65.72	0
65.94	0
66.16	0
66.38	0.251
66.6	0.185
66.82	0.054
67.04	0
67.26	0
67.48	0.092
67.7	0.511
67.92	0.219
68.14	0
68.36	0
68.58	0.012
68.8	0.141
69.02	0.23
69.24	0.103
69.46	0.033
69.68	0.024
69.9	0.259
70.12	0.051
70.34	0
70.56	0
70.78	0.027
71	0.055
71.22	0.03
71.44	0.101
71.66	0.027
71.88	0.014
72.1	0.011
72.32	0
72.54	0.004
72.76	0.029
72.98	0.127
73.2	0.048
73.42	0.023
73.64	0.588
73.86	0.557
74.08	0.087
74.3	0
74.52	0
74.74	0
74.96	0
75.18	0
75.4	0.061
75.62	0.034
75.84	0.032
76.06	0.014
76.28	0
76.5	0
76.72	0.015
76.94	0.598
77.16	0.337
77.38	0.013
77.6	0
77.82	0.061
78.04	0.046
78.26	0.013
78.48	0
78.7	0.412
78.92	0.267
79.14	0.031
79.36	0
79.58	0
79.8	0.094
80.02	0.049
80.24	0.012
80.46	0
80.68	0
80.9	0.008
81.12	0.04
81.34	0.086
81.56	0.047
81.78	0.033
82	0.042
82.22	0.023
82.44	0.006
82.66	0.01
82.88	0.033
83.1	0.043
83.32	0.003
83.54	0
83.76	0
83.98	0
84.2	0
84.42	0.133
84.64	0.151
84.86	0.488
85.08	0.206
85.3	0.002
85.52	0.002
85.74	0.303
85.96	0.106
86.18	0.008
86.4	0
86.62	0
86.84	0.053
87.06	0.245
87.28	0.059
87.5	0.117
87.72	0.044
87.94	0.005
88.16	0.001
88.38	0
88.6	0.036
88.82	0.013
89.04	0.017
89.26	0.411
89.48	0.136
89.7	0.013
89.92	0.016
