Measurement: Powder, Xray Data XY Processed
Mineral: Zanazziite
Rruff sample: R050578
Ideal chemistry: Ca_2_Mg_5_Be_4_(PO_4_)_6_(OH)_4_6H_2_O
Locality: Lavra da Ilha pegmatite, Taquaral, Minas Gerais, Brazil
Source: University of Arizona Mineral Museum
Description: Mass of pale green acicular crystals associated with eosphorite
Diffraction sample description: Single crystal, powder profile is calculated
Measured chemistry: Ca_2.00_Be_4.00_(Mg_2.48_Fe^2+^_1.80_Mn_0.33_Al_0.26_[box]_0.13_)_Σ=5_(P_1.00_O_4_)_6_(OH)_4_·6H_2_O ; Be not measured but estimated by difference and charge balance
Cell parameters: a: 15.90(2) b: 11.843(15) c: 6.599(6) alpha: 90 beta: 95.49(3) gamma: 90 volume: 1237(3) crystal system: monoclinic
x	intensity
5	0
5.22	0
5.44	0
5.66	0
5.88	0
6.1	0
6.32	0
6.54	0
6.76	0
6.98	0
7.2	0
7.42	0
7.64	0
7.86	0
8.08	0
8.3	0
8.52	0
8.74	0
8.96	0
9.18	0
9.4	4.178
9.62	0
9.84	0
10.06	0
10.28	0
10.5	0
10.72	0
10.94	0
11.16	4.639
11.38	0
11.6	0
11.82	0
12.04	0
12.26	0
12.48	0
12.7	0
12.92	0
13.14	0
13.36	0
13.58	0.009
13.8	0
14.02	0
14.24	0
14.46	0
14.68	0
14.9	12.742
15.12	0
15.34	0
15.56	0
15.78	0
16	4.631
16.22	0
16.44	0
16.66	0.561
16.88	2.418
17.1	0
17.32	0
17.54	0
17.76	0
17.98	0
18.2	0
18.42	30.065
18.64	0.106
18.86	0
19.08	0
19.3	0
19.52	0
19.74	0
19.96	0
20.18	8.273
20.4	0
20.62	0
20.84	0
21.06	0
21.28	0
21.5	0
21.72	0
21.94	0.356
22.16	0
22.38	0.036
22.6	0.089
22.82	0
23.04	0
23.26	0.025
23.48	0
23.7	0.487
23.92	0.438
24.14	0
24.36	0
24.58	0
24.8	0
25.02	0.001
25.24	0.009
25.46	0
25.68	0
25.9	0
26.12	0
26.34	0
26.56	0.263
26.78	0.587
27	0.087
27.22	2.578
27.44	0.066
27.66	0
27.88	0
28.1	0.058
28.32	14.607
28.54	0.293
28.76	0
28.98	0
29.2	17.839
29.42	0.273
29.64	0
29.86	0
30.08	0.16
30.3	0.26
30.52	10.739
30.74	0.53
30.96	0.001
31.18	2.337
31.4	0.921
31.62	7.662
31.84	0
32.06	0.26
32.28	30.456
32.5	0
32.72	0
32.94	0
33.16	1.653
33.38	2.62
33.6	0.018
33.82	0.224
34.04	16.809
34.26	0.264
34.48	0.258
34.7	1.569
34.92	0
35.14	0
35.36	0.026
35.58	3.616
35.8	0
36.02	0
36.24	0.004
36.46	2.832
36.68	0
36.9	0
37.12	1.489
37.34	4.552
37.56	0
37.78	0
38	2.308
38.22	0.045
38.44	4.62
38.66	0.285
38.88	0
39.1	0
39.32	0
39.54	0.021
39.76	1.263
39.98	0.504
40.2	0.024
40.42	0.177
40.64	10.569
40.86	0.315
41.08	3.746
41.3	1.588
41.52	0
41.74	10.835
41.96	0.963
42.18	0.219
42.4	0
42.62	0
42.84	0.335
43.06	0.069
43.28	0.036
43.5	0.865
43.72	0.013
43.94	0.367
44.16	3.481
44.38	1.625
44.6	4.265
44.82	0.063
45.04	0
45.26	0.008
45.48	0.074
45.7	0
45.92	4.299
46.14	1.433
46.36	0.072
46.58	0.051
46.8	0.065
47.02	0.305
47.24	0.842
47.46	3.388
47.68	2.988
47.9	0.323
48.12	0.786
48.34	1.329
48.56	0.243
48.78	1.056
49	0.213
49.22	2.268
49.44	0.161
49.66	0.383
49.88	0.264
50.1	0.002
50.32	0
50.54	0
50.76	0.24
50.98	1.053
51.2	0
51.42	0.374
51.64	2.374
51.86	2.654
52.08	0.988
52.3	2.088
52.52	3.457
52.74	0.529
52.96	0.001
53.18	0.181
53.4	0
53.62	1.514
53.84	0.418
54.06	0.654
54.28	1.846
54.5	1.289
54.72	0.081
54.94	0.056
55.16	0
55.38	1.472
55.6	1.347
55.82	6.159
56.04	5.351
56.26	6.223
56.48	1.574
56.7	1.44
56.92	0.002
57.14	1.406
57.36	1.826
57.58	0.702
57.8	0.071
58.02	2.99
58.24	1.281
58.46	1.292
58.68	0.245
58.9	1.608
59.12	1.19
59.34	0.149
59.56	0.411
59.78	0
60	0.009
60.22	0
60.44	0.059
60.66	0.631
60.88	0.694
61.1	1.463
61.32	0.952
61.54	1.711
61.76	0.172
61.98	2.065
62.2	2.828
62.42	0.505
62.64	0.636
62.86	0.405
63.08	0.218
63.3	0.048
63.52	2.448
63.74	1.536
63.96	0.969
64.18	0.002
64.4	0.059
64.62	0.511
64.84	0.327
65.06	0.306
65.28	0.455
65.5	2.66
65.72	0.511
65.94	0.914
66.16	0.329
66.38	0.001
66.6	0.121
66.82	0.12
67.04	1.129
67.26	0.789
67.48	0.663
67.7	0.537
67.92	0.174
68.14	0.079
68.36	0.025
68.58	0.217
68.8	0.057
69.02	0.081
69.24	0.369
69.46	0.723
69.68	1.457
69.9	0.681
70.12	1.675
70.34	3.073
70.56	0.827
70.78	0.167
71	0.574
71.22	0.389
71.44	0.878
71.66	1.014
71.88	1.465
72.1	0.743
72.32	0.771
72.54	0.516
72.76	0.015
72.98	0.006
73.2	1.526
73.42	0.889
73.64	0.586
73.86	0.324
74.08	0.403
74.3	0.22
74.52	0.001
74.74	0.444
74.96	0.561
75.18	0.996
75.4	0.766
75.62	0.206
75.84	0.047
76.06	0.036
76.28	0.452
76.5	0.261
76.72	0.214
76.94	0.165
77.16	0.506
77.38	0.399
77.6	0.394
77.82	0.211
78.04	0.048
78.26	0.069
78.48	0.036
78.7	0.427
78.92	1.244
79.14	0.461
79.36	0.012
79.58	0.296
79.8	0.152
80.02	1.092
80.24	0.555
80.46	0.006
80.68	0.472
80.9	0.338
81.12	0.196
81.34	0.536
81.56	0.342
81.78	0.05
82	0.129
82.22	0.394
82.44	1.08
82.66	0.457
82.88	0.339
83.1	0.116
83.32	0.014
83.54	0.255
83.76	0.323
83.98	0.133
84.2	0.005
84.42	0.041
84.64	0.065
84.86	0.158
85.08	0.032
85.3	0.22
85.52	0.267
85.74	0.07
85.96	0.684
86.18	0.286
86.4	0.381
86.62	0.655
86.84	0.418
87.06	1.117
87.28	0.673
87.5	0.14
87.72	0.795
87.94	0.267
88.16	0.783
88.38	0.468
88.6	0.063
88.82	0.794
89.04	1.039
89.26	1.012
89.48	0.353
89.7	0.176
89.92	0.055
