Measurement: Powder, Xray Data XY Processed
Mineral: Zinc
Rruff sample: R070497
Ideal chemistry: Zn
Locality: Round Mountain area, Shasta County, California, USA
Source: James Shigley
Description: Grey, metallic crystal with irregular, platy structure
Diffraction sample description: Powder, using Mo radiation
Cell parameters: a: 2.6701(2) b: 2.6701(2) c: 4.955(1) alpha: 90 beta: 90 gamma: 120 volume: 30.596(8) crystal system: hexagonal
x	intensity
5.36	0
5.51	0.314215
5.66	24.953
5.81	2.72607
5.96	11.7214
6.11	5.60245
6.26	21.3333
6.41	18.6152
6.56	12.7669
6.71	15.6432
6.86	12.3179
7.01	9.48347
7.16	12.0774
7.31	1.61509
7.46	8.6375
7.61	16.6335
7.76	12.9092
7.91	11.2494
8.06	9.94714
8.21	33.3349
8.36	26.1716
8.51	16.5855
8.66	22.8415
8.81	20.0353
8.96	34.8096
9.11	16.3909
9.26	24.7751
9.41	20.0644
9.56	19.052
9.71	54.6747
9.86	69.0514
10.01	72.6307
10.16	62.0243
10.31	44.0824
10.46	25.6602
10.61	12.4561
10.76	4.27385
10.91	11.5311
11.06	0.015142
11.21	7.61961
11.36	4.29414
11.51	1.25751
11.66	0.336767
11.81	7.96225
11.96	2.14186
12.11	10.2605
12.26	19.2033
12.41	0.688868
12.56	1.8316
12.71	5.18216
12.86	0.965065
13.01	0.282334
13.16	0.699855
13.31	1.08241
13.46	0.759734
13.61	2.13502
13.76	1.66247
13.91	1.60381
14.06	1.64547
14.21	16.6144
14.36	20.9236
14.51	14.7433
14.66	6.57017
14.81	0.896238
14.96	1.56436
15.11	1.8299
15.26	5.92565
15.41	9.21628
15.56	14.4339
15.71	20.7286
15.86	10.7502
16.01	8.29074
16.16	54.0838
16.31	365.912
16.46	1064.03
16.61	1021.04
16.76	366.5
16.91	81.9245
17.06	32.5
17.21	33.0731
17.36	106.905
17.51	514.363
17.66	1240.48
17.81	1117.58
17.96	371.976
18.11	82.0644
18.26	41.6911
18.41	31.6294
18.56	30.7112
18.71	26.1384
18.86	31.5235
19.01	50.6413
19.16	158.992
19.31	1157.07
19.46	3576.17
19.61	4362.41
19.76	2064.36
19.91	437.34
20.06	132.73
20.21	76.4523
20.36	56.6911
20.51	51.0628
20.66	39.8429
20.81	34.8154
20.96	22.8567
21.11	6.41476
21.26	5.372
21.41	9.21602
21.56	8.15795
21.71	0.112254
21.86	0.790716
22.01	3.49251
22.16	0.457808
22.31	4.18936
22.46	2.4657
22.61	1.09642
22.76	3.82276
22.91	0.85674
23.06	0.977074
23.21	3.25559
23.36	6.45958
23.51	3.28545
23.66	8.06055
23.81	19.2757
23.96	70.7255
24.11	334.312
24.26	666.115
24.41	540.509
24.56	199.025
24.71	40.3562
24.86	24.4978
25.01	14.708
25.16	18.181
25.31	17.8402
25.46	15.0051
25.61	20.1357
25.76	6.31986
25.91	4.07602
26.06	5.75686
26.21	0.043305
26.36	3.85461
26.51	0.826444
26.66	0.708964
26.81	0.769324
26.96	7.94646
27.11	3.00696
27.26	0.776756
27.41	6.08652
27.56	14.6446
27.71	9.10934
27.86	0.940942
28.01	0.316207
28.16	2.35828
28.31	0.846246
28.46	1.73963
28.61	0.61035
28.76	2.94856
28.91	1.42129
29.06	1.51971
29.21	5.92977
29.36	3.60678
29.51	10.1345
29.66	8.79831
29.81	14.9324
29.96	8.47065
30.11	20.5232
30.26	42.0153
30.41	189.11
30.56	602.182
30.71	1113.85
30.86	1168.14
31.01	752.508
31.16	288.908
31.31	76.4713
31.46	33.0089
31.61	24.644
31.76	12.1952
31.91	16.7875
32.06	12.5529
32.21	5.46262
32.36	16.9204
32.51	1.94121
32.66	7.94753
32.81	6.65413
32.96	0.027114
33.11	17.7575
33.26	71.184
33.41	71.4592
33.56	48.4081
33.71	17.715
33.86	2.51586
34.01	0.705637
34.16	1.15171
34.31	1.63518
34.46	0.127495
34.61	5.32326
34.76	22.2565
34.91	124.069
35.06	431.263
35.21	592.765
35.36	459.408
35.51	220.732
35.66	136.969
35.81	135.34
35.96	104.794
36.11	56.7401
36.26	32.7137
36.41	50.032
36.56	193.065
36.71	475.476
36.86	500.191
37.01	341.008
37.16	117.85
37.31	27.3277
37.46	21.5313
37.61	14.7707
37.76	40.3172
37.91	67.3998
38.06	68.6298
38.21	38.9684
38.36	14.3688
38.51	2.81081
38.66	3.16915
38.81	4.17452
38.96	5.90453
39.11	2.51809
39.26	8.75981
39.41	45.4044
39.56	104.204
39.71	101.403
39.86	75.6839
40.01	32.877
40.16	7.77247
40.31	7.22743
40.46	4.2245
40.61	7.48134
40.76	5.22552
40.91	0.489176
41.06	7.33371
41.21	2.52654
41.36	6.43219
41.51	3.95359
41.66	0.336863
41.81	1.01715
41.96	0.066347
42.11	5.88058
42.26	2.67169
42.41	1.35554
42.56	1.79465
42.71	2.46651
42.86	7.21543
43.01	6.93956
43.16	7.86654
43.31	6.04267
43.46	3.9255
43.61	15.1304
43.76	42.5029
43.91	134.433
44.06	146.934
44.21	113.96
44.36	84.7224
44.51	25.9466
44.66	17.424
44.81	11.4837
44.96	11.5963
45.11	9.92879
45.26	5.909
45.41	0.785047
45.56	14.4537
45.71	51.7932
45.86	130.05
46.01	165.256
46.16	135.597
46.31	89.6017
46.46	39.6136
46.61	11.4796
46.76	7.42108
46.91	1.03064
47.06	5.72722
47.21	3.85598
47.36	0.002535
47.51	0.075628
47.66	6.19038
47.81	44.3513
47.96	44.6078
48.11	35.3939
48.26	37.3181
48.41	43.549
48.56	148.066
48.71	217.105
48.86	173.732
49.01	141.6
49.16	70.7091
49.31	14.1243
49.46	19.972
49.61	31.947
49.76	26.4893
49.91	19.1438
50.06	9.93321
50.21	8.67369
50.36	3.02048
50.51	7.69475
50.66	11.1045
50.81	38.032
50.96	65.8822
51.11	41.9001
51.26	45.5888
51.41	21.3658
51.56	4.14577
51.71	8.20118
51.86	1.15574
52.01	0.426637
52.16	9.00048
52.31	6.67256
52.46	1.28117
52.61	2.59503
52.76	0.902949
52.91	5.32831
53.06	1.96259
53.21	1.88716
53.36	2.21097
53.51	7.12531
53.66	2.45466
53.81	14.2772
53.96	1.44115
54.11	8.25929
54.26	11.3893
54.41	33.6699
54.56	112.963
54.71	164.554
54.86	139.411
55.01	95.5679
55.16	71.6527
55.31	37.1974
55.46	5.15646
55.61	12.8125
55.76	9.9697
55.91	19.0396
56.06	21.5794
56.21	26.4732
56.36	33.404
56.51	15.296
56.66	6.11162
56.81	4.93515
56.96	1.05014
57.11	9.32611
57.26	1.57463
57.41	12.5743
57.56	52.2443
57.71	51.164
57.86	39.7914
58.01	45.6099
58.16	13.1325
58.31	1.31051
58.46	4.19773
58.61	2.14142
58.76	1.16296
58.91	3.03017
59.06	4.11172
59.21	4.21258
59.36	1.00189
59.51	17.9916
59.66	10.1435
59.81	9.39193
59.96	7.15845
60.11	11.9406
60.26	6.2907
60.41	8.04495
60.56	22.2269
60.71	20.6167
60.86	17.1509
61.01	11.4278
61.16	13.3948
61.31	9.05664
61.46	6.55161
61.61	11.4742
61.76	2.29237
61.91	1.25181
62.06	1.27793
62.21	1.39077
62.36	0
