Measurement: Powder, Xray Data XY Processed
Mineral: Zirkelite
Rruff sample: R060540
Ideal chemistry: (Ti^4+^,Ca,Zr^4+^)O_2-x_
Locality: Palabora Open Pit, Phalaborwa, Transvaal, Republic of South Africa
Source: Michael Scott
Description: Black flattened octahedra, metamict
Diffraction sample description: Powder
Measured chemistry: (Ti_0.42_Zr_0.28_Ca_0.20_Fe^3+^_0.08_Th_0.02_)_Î£=1_O_1.76_; trace amounts of Ce, Pb, U
x	intensity
5	0
5.22	0.694764
5.44	4.53808
5.66	12.9821
5.88	10.0969
6.1	13.211
6.32	8.47553
6.54	10.2792
6.76	1.51704
6.98	11.5291
7.2	8.37371
7.42	13.7055
7.64	1.64135
7.86	7.56533
8.08	10.8519
8.3	5.02789
8.52	5.64736
8.74	1.37652
8.96	1.47246
9.18	8.48401
9.4	5.47756
9.62	1.48358
9.84	1.51131
10.06	8.07379
10.28	4.03981
10.5	5.12764
10.72	7.14833
10.94	9.68835
11.16	2.71243
11.38	2.65832
11.6	5.65284
11.82	5.77218
12.04	1.88432
12.26	11.8187
12.48	0.163586
12.7	6.80205
12.92	8.7323
13.14	1.79126
13.36	4.91908
13.58	3.09494
13.8	10.4242
14.02	2.5332
14.24	5.48618
14.46	6.3774
14.68	7.46051
14.9	5.6296
15.12	6.03204
15.34	1.97482
15.56	11.0907
15.78	6.83187
16	5.86165
16.22	1.23357
16.44	3.8687
16.66	7.86871
16.88	6.02177
17.1	0.022367
17.32	6.58234
17.54	4.47807
17.76	9.45311
17.98	9.212
18.2	9.2026
18.42	9.06357
18.64	1.86892
18.86	4.76065
19.08	1.69475
19.3	4.70365
19.52	0.61447
19.74	4.6274
19.96	6.83678
20.18	5.85492
20.4	5.00689
20.62	7.93186
20.84	6.89259
21.06	9.75234
21.28	7.78174
21.5	4.18791
21.72	14.4238
21.94	5.38831
22.16	3.23507
22.38	6.80286
22.6	6.78321
22.82	5.36524
23.04	1.63346
23.26	8.55653
23.48	7.27462
23.7	7.27227
23.92	12.2482
24.14	14.1857
24.36	6.02306
24.58	7.26072
24.8	2.39204
25.02	8.14016
25.24	3.06146
25.46	5.03044
25.68	1.18558
25.9	6.763
26.12	9.5021
26.34	0.445431
26.56	0.693319
26.78	4.10371
27	12.8341
27.22	12.6679
27.44	5.86769
27.66	8.87983
27.88	6.43643
28.1	9.06535
28.32	10.8531
28.54	2.55289
28.76	3.93173
28.98	8.56504
29.2	5.15693
29.42	8.03969
29.64	17.6855
29.86	4.26203
30.08	5.00759
30.3	2.92245
30.52	10.5018
30.74	10.58
30.96	14.1559
31.18	12.1242
31.4	12.9803
31.62	9.8643
31.84	8.84775
32.06	9.71377
32.28	6.7114
32.5	9.66366
32.72	17.0681
32.94	13.3761
33.16	12.4775
33.38	9.57361
33.6	6.0341
33.82	2.70045
34.04	1.06838
34.26	10.4243
34.48	5.80778
34.7	7.30545
34.92	8.59551
35.14	9.7773
35.36	6.07997
35.58	9.37631
35.8	7.68761
36.02	8.58414
36.24	0.829342
36.46	8.98242
36.68	3.28385
36.9	3.25186
37.12	6.27668
37.34	9.22618
37.56	3.21424
37.78	2.13696
38	2.87892
38.22	5.667
38.44	9.59564
38.66	6.89225
38.88	5.02943
39.1	4.07965
39.32	0.015676
39.54	3.1846
39.76	1.3795
39.98	6.57993
40.2	14.9406
40.42	10.103
40.64	8.96954
40.86	8.00048
41.08	6.59758
41.3	2.40766
41.52	9.10163
41.74	1.97082
41.96	4.84698
42.18	3.71482
42.4	6.83979
42.62	7.43902
42.84	5.64689
43.06	4.62608
43.28	7.75047
43.5	12.0984
43.72	10.2234
43.94	10.3792
44.16	3.48558
44.38	12.564
44.6	0.175484
44.82	3.31369
45.04	1.26826
45.26	4.96917
45.48	0.782729
45.7	5.70519
45.92	10.3614
46.14	13.1788
46.36	9.06055
46.58	5.95884
46.8	3.76684
47.02	2.98698
47.24	10.9573
47.46	3.90657
47.68	0.788597
47.9	3.06348
48.12	4.02939
48.34	4.00487
48.56	9.00367
48.78	3.96482
49	2.92689
49.22	9.83579
49.44	10.567
49.66	7.64184
49.88	3.62744
50.1	4.5413
50.32	1.3181
50.54	3.22838
50.76	2.57382
50.98	2.58754
51.2	8.50212
51.42	3.38462
51.64	8.71908
51.86	7.41221
52.08	5.21127
52.3	9.07447
52.52	12.0302
52.74	3.95971
52.96	6.07507
53.18	0.770058
53.4	7.03177
53.62	12.0749
53.84	5.32731
54.06	6.37675
54.28	7.38051
54.5	2.58587
54.72	7.60287
54.94	2.66297
55.16	10.9403
55.38	4.80315
55.6	15.6124
55.82	5.21685
56.04	2.43163
56.26	15.2573
56.48	3.95601
56.7	2.95932
56.92	0.064967
57.14	6.50605
57.36	7.70739
57.58	13.6401
57.8	6.79427
58.02	1.09983
58.24	3.49487
58.46	1.99889
58.68	13.0471
58.9	17.1433
59.12	5.37757
59.34	7.22115
59.56	1.76716
59.78	11.7567
60	9.70682
60.22	1.57944
60.44	8.54458
60.66	5.07268
60.88	0.346697
61.1	7.69106
61.32	12.9574
61.54	5.73773
61.76	5.70107
61.98	0.226702
62.2	2.80771
62.42	2.83679
62.64	4.95861
62.86	4.97018
63.08	4.41744
63.3	8.67755
63.52	11.8051
63.74	5.98524
63.96	5.38345
64.18	6.56844
64.4	7.78163
64.62	9.9298
64.84	9.0189
65.06	4.04467
65.28	3.07682
65.5	7.93845
65.72	3.70491
65.94	7.67567
66.16	14.1469
66.38	2.24562
66.6	3.16432
66.82	9.0394
67.04	7.88023
67.26	15.089
67.48	7.14562
67.7	1.13423
67.92	2.0748
68.14	2.21455
68.36	7.29909
68.58	14.5521
68.8	7.24611
69.02	5.37725
69.24	4.71642
69.46	5.75153
69.68	14.6604
69.9	7.67802
70.12	7.67066
70.34	2.6396
70.56	5.596
70.78	4.48889
71	6.39316
71.22	8.05209
71.44	5.27228
71.66	2.05532
71.88	0.961823
72.1	8.9694
72.32	3.06419
72.54	1.02282
72.76	2.11042
72.98	10.0877
73.2	3.9559
73.42	5.82739
73.64	5.43123
73.86	4.1708
74.08	5.15654
74.3	6.13574
74.52	2.05303
74.74	8.26016
74.96	2.29523
75.18	2.19752
75.4	7.10105
75.62	3.05437
75.84	1.7553
76.06	0.972867
76.28	2.05915
76.5	2.06243
76.72	2.11578
76.94	0.136128
77.16	2.73042
77.38	0.763236
77.6	5.83618
77.82	2.39369
78.04	5.44008
78.26	8.34261
78.48	8.46302
78.7	7.58021
78.92	0.695932
79.14	7.67655
79.36	3.96076
79.58	11.0805
79.8	7.11378
80.02	9.03547
80.24	6.55944
80.46	13.6128
80.68	5.8451
80.9	2.97947
81.12	5.75724
81.34	5.87398
81.56	5.68619
81.78	6.6956
82	3.54005
82.22	14.4504
82.44	4.35589
82.66	9.22934
82.88	6.06768
83.1	5.00489
83.32	10.8884
83.54	6.87441
83.76	2.76165
83.98	1.1748
84.2	1.76455
84.42	9.13613
84.64	7.20842
84.86	5.35304
85.08	1.37639
85.3	4.37854
85.52	7.18778
85.74	4.11302
85.96	4.22279
86.18	12.0369
86.4	7.02404
86.62	4.86744
86.84	4.91626
87.06	5.98698
87.28	10.0324
87.5	6.18814
87.72	1.27483
87.94	8.84188
88.16	3.02003
88.38	0.967008
88.6	2.10041
88.82	1.89886
89.04	0.998351
89.26	8.11397
89.48	6.42633
89.7	13.101
89.92	13.611
