Measurement: Powder, Xray Data XY Processed
Mineral: Adamite
Rruff sample: R040130
Ideal chemistry: Zn^2+^_2_As^5+^O_4_(OH)
Locality: Mina Ojuela, Mapimi, Durango, Mexico
Source: Bob Downs
Description: Pale yellow spherical aggregate of bladed crystals
Diffraction sample description: Powder
Measured chemistry: Zn_1.97_(As_1.01_O_4_)(OH)
Cell parameters: a: 8.3160(1) b: 8.5307(3) c: 6.0598(2) alpha: 90. beta: 90. gamma: 90. volume: 429.90(1) crystal system: orthorhombic
x	intensity
5	0
5.22	12.1054
5.44	4.49626
5.66	16.6733
5.88	9.63062
6.1	1.5608
6.32	3.60626
6.54	10.2298
6.76	12.1685
6.98	5.11775
7.2	20.8
7.42	4.78782
7.64	19.8294
7.86	9.21301
8.08	19.8229
8.3	14.0817
8.52	10.5008
8.74	1.84969
8.96	3.45509
9.18	2.82664
9.4	6.34748
9.62	13.6546
9.84	11.8517
10.06	5.26758
10.28	11.0364
10.5	4.69696
10.72	14.5853
10.94	10.5649
11.16	3.57361
11.38	0.579515
11.6	1.27759
11.82	2.89914
12.04	5.66306
12.26	12.6102
12.48	1.02966
12.7	8.13069
12.92	7.2766
13.14	7.37108
13.36	10.2644
13.58	4.09157
13.8	0.366062
14.02	13.4496
14.24	9.3569
14.46	7.44036
14.68	19.3874
14.9	565.346
15.12	15.9615
15.34	5.66357
15.56	1.50991
15.78	1.76702
16	7.21506
16.22	7.67336
16.44	15.5192
16.66	2.23568
16.88	9.72588
17.1	8.16417
17.32	6.61339
17.54	6.19106
17.76	7.78816
17.98	479.289
18.2	681.587
18.42	16.894
18.64	4.98142
18.86	13.5413
19.08	2.99104
19.3	0.488295
19.52	6.74277
19.74	0.964396
19.96	2.85317
20.18	9.2116
20.4	6.30852
20.62	7.4527
20.84	79.413
21.06	74.9371
21.28	13.5501
21.5	43.0701
21.72	4.10763
21.94	7.21637
22.16	13.2733
22.38	1.32966
22.6	3.58508
22.82	1.41905
23.04	10.352
23.26	20.5406
23.48	216.211
23.7	26.2341
23.92	195.718
24.14	7.90581
24.36	6.26498
24.58	2.57116
24.8	0.025923
25.02	8.50092
25.24	3.0271
25.46	8.26202
25.68	7.45915
25.9	1.70563
26.12	6.89499
26.34	7.85862
26.56	1.67258
26.78	9.06034
27	5.88953
27.22	8.07931
27.44	5.58525
27.66	16.4222
27.88	6.231
28.1	11.4269
28.32	7.71411
28.54	9.88772
28.76	3.86555
28.98	3.32424
29.2	12.9281
29.42	47.9439
29.64	54.423
29.86	38.3809
30.08	505.413
30.3	38.9279
30.52	1.58851
30.74	3.33736
30.96	10.6676
31.18	2.19605
31.4	7.737
31.62	15.7541
31.84	5.37043
32.06	12.7365
32.28	2.68023
32.5	13.2138
32.72	21.4376
32.94	13.8349
33.16	250.463
33.38	85.1985
33.6	294.761
33.82	12.7849
34.04	334.322
34.26	25.0167
34.48	0.783352
34.7	12.5504
34.92	70.5417
35.14	6.32093
35.36	3.11688
35.58	54.0338
35.8	20.2451
36.02	0.25639
36.24	27.8422
36.46	300.164
36.68	269.183
36.9	31.5499
37.12	40.947
37.34	192.322
37.56	17.221
37.78	2.58295
38	24.3152
38.22	101.691
38.44	50.1406
38.66	6.29114
38.88	22.1565
39.1	1.41497
39.32	10.779
39.54	10.2019
39.76	13.1847
39.98	5.94179
40.2	5.6361
40.42	6.26957
40.64	2.29076
40.86	8.02315
41.08	6.65241
41.3	7.6047
41.52	3.09145
41.74	12.348
41.96	4.21198
42.18	6.19487
42.4	6.12227
42.62	10.9825
42.84	9.45787
43.06	5.3786
43.28	7.86987
43.5	17.9986
43.72	11.8352
43.94	7.00135
44.16	5.66828
44.38	0.659313
44.6	0.104229
44.82	7.3964
45.04	22.9338
45.26	5.39013
45.48	6.94729
45.7	35.3722
45.92	1.93291
46.14	32.8029
46.36	35.6889
46.58	47.6754
46.8	6.31427
47.02	2.54412
47.24	2.45291
47.46	61.077
47.68	27.4506
47.9	2.20123
48.12	7.66686
48.34	32.305
48.56	4.70618
48.78	8.34597
49	8.98544
49.22	11.4752
49.44	16.8282
49.66	4.39355
49.88	7.25461
50.1	7.23612
50.32	3.38443
50.54	21.305
50.76	6.33851
50.98	14.307
51.2	5.9684
51.42	11.5409
51.64	6.74604
51.86	2.32408
52.08	2.16628
52.3	6.24406
52.52	25.3655
52.74	9.43898
52.96	3.18563
53.18	14.9378
53.4	59.7342
53.62	55.3819
53.84	11.793
54.06	3.89492
54.28	3.23185
54.5	0.939749
54.72	12.5283
54.94	67.9002
55.16	18.3034
55.38	91.5812
55.6	17.7173
55.82	33.4474
56.04	6.3732
56.26	12.3702
56.48	60.3275
56.7	25.6843
56.92	34.2831
57.14	142.675
57.36	136.132
57.58	30.0628
57.8	5.00813
58.02	101.196
58.24	2.70601
58.46	46.0134
58.68	68.4874
58.9	13.673
59.12	10.3119
59.34	0.672525
59.56	10.8217
59.78	14.4142
60	1.25744
60.22	13.5427
60.44	4.16812
60.66	0.760519
60.88	5.63628
61.1	55.4382
61.32	109.452
61.54	8.90945
61.76	15.4574
61.98	5.04146
62.2	26.6837
62.42	72.3347
62.64	17.2017
62.86	13.5459
63.08	10.1122
63.3	15.3266
63.52	18.3475
63.74	7.59895
63.96	2.54657
64.18	10.8323
64.4	1.3857
64.62	14.9233
64.84	16.942
65.06	14.8639
65.28	6.46089
65.5	0.402332
65.72	4.43447
65.94	21.4084
66.16	41.1226
66.38	9.88688
66.6	28.8159
66.82	59.3426
67.04	19.4661
67.26	13.8794
67.48	10.3347
67.7	8.83083
67.92	63.7659
68.14	25.9905
68.36	5.86664
68.58	28.8631
68.8	11.1093
69.02	1.30623
69.24	12.2387
69.46	11.7058
69.68	56.0327
69.9	49.2084
70.12	24.3751
70.34	24.2206
70.56	49.7982
70.78	20.672
71	3.60494
71.22	2.43903
71.44	44.0757
71.66	25.6021
71.88	57.543
72.1	44.5053
72.32	9.39658
72.54	3.16063
72.76	0.180302
72.98	33.1738
73.2	4.74421
73.42	23.4085
73.64	27.6459
73.86	6.13113
74.08	2.56841
74.3	3.16974
74.52	10.7818
74.74	72.5432
74.96	34.6681
75.18	1.64245
75.4	19.2646
75.62	25.1661
75.84	10.5766
76.06	2.11066
76.28	10.0374
76.5	9.97571
76.72	1.28458
76.94	12.5286
77.16	2.53586
77.38	6.3816
77.6	10.4423
77.82	6.21716
78.04	6.30796
78.26	13.3685
78.48	5.48419
78.7	6.08873
78.92	2.43632
79.14	14.4084
79.36	5.63186
79.58	23.35
79.8	8.7572
80.02	5.5517
80.24	12.676
80.46	5.47195
80.68	8.17382
80.9	20.1638
81.12	19.1475
81.34	12.6352
81.56	22.6932
81.78	3.40496
82	5.2153
82.22	11.4875
82.44	20.159
82.66	5.33843
82.88	1.66679
83.1	1.97429
83.32	7.95063
83.54	6.30999
83.76	8.56209
83.98	8.91999
84.2	6.14055
84.42	7.97716
84.64	7.37896
84.86	0.368539
85.08	15.6757
85.3	14.5533
85.52	4.60758
85.74	4.06602
85.96	0.639537
86.18	4.98447
86.4	1.61324
86.62	7.75004
86.84	14.4351
87.06	2.0239
87.28	10.7341
87.5	1.81103
87.72	7.90829
87.94	12.3882
88.16	3.1427
88.38	13.8566
88.6	4.62841
88.82	34.48
89.04	9.68141
89.26	29.0045
89.48	27.8187
89.7	7.5707
89.92	14.1769
