Measurement: Powder, Xray Data XY Processed
Mineral: Adamite
Rruff sample: R050020
Ideal chemistry: Zn^2+^_2_As^5+^O_4_(OH)
Locality: Mina Ojuela, Mapimi, Durango, Mexico
Source: Eugene Schlepp
Description: Light green prismatic crystal
Diffraction sample description: Powder
Measured chemistry: (Zn_1.97_Cu_0.03_)_Σ=2_((As_0.98_P_0.02_)_Σ=1_O_4_)(OH)
Cell parameters: a: 8.3126(3) b: 8.5274(5) c: 6.0565(3) alpha: 90. beta: 90. gamma: 90. volume: 429.31(2) crystal system: orthorhombic
x	intensity
5	0
5.22	17.294
5.44	7.458
5.66	14.155
5.88	12.004
6.1	11.701
6.32	11.587
6.54	3.328
6.76	0.915
6.98	12.635
7.2	17.537
7.42	4.468
7.64	20.45
7.86	15.565
8.08	8.494
8.3	9.849
8.52	9.372
8.74	5.771
8.96	3.601
9.18	5.046
9.4	6.286
9.62	2.33
9.84	8.956
10.06	0.562
10.28	0.488
10.5	1.862
10.72	8.781
10.94	8.365
11.16	1.706
11.38	2.698
11.6	6.555
11.82	0.385
12.04	8.375
12.26	7.186
12.48	10.984
12.7	13.206
12.92	8.176
13.14	4.004
13.36	7.88
13.58	9.509
13.8	0.372
14.02	3.126
14.24	8.916
14.46	0.287
14.68	12.526
14.9	176.431
15.12	18.256
15.34	14.846
15.56	3.952
15.78	10.373
16	2.058
16.22	12.205
16.44	24.12
16.66	2.037
16.88	9.662
17.1	8.301
17.32	4.917
17.54	9.535
17.76	0.184
17.98	188.974
18.2	895.946
18.42	19.569
18.64	6.419
18.86	7.502
19.08	3.817
19.3	9.77
19.52	9.731
19.74	0.805
19.96	2.844
20.18	6.945
20.4	14.498
20.62	7.546
20.84	35.43
21.06	283.9
21.28	7.708
21.5	43.578
21.72	8.019
21.94	9.497
22.16	14.662
22.38	1.779
22.6	2.813
22.82	4.84
23.04	2.745
23.26	4.309
23.48	86.411
23.7	15.869
23.92	215.931
24.14	10.575
24.36	15.73
24.58	7.91
24.8	6.097
25.02	0.476
25.24	11.794
25.46	7.048
25.68	14.909
25.9	3.717
26.12	0.357
26.34	13.857
26.56	17.973
26.78	9.878
27	6.711
27.22	10.206
27.44	5.206
27.66	3.249
27.88	6.292
28.1	1.004
28.32	2.337
28.54	2.236
28.76	3.435
28.98	1.886
29.2	6.291
29.42	18.8
29.64	118.159
29.86	19.813
30.08	759.292
30.3	33.331
30.52	10.376
30.74	5.433
30.96	12.742
31.18	10.784
31.4	3.824
31.62	9.017
31.84	1.802
32.06	8.063
32.28	6.192
32.5	1.64
32.72	8.426
32.94	16.572
33.16	78.801
33.38	296.095
33.6	213.766
33.82	20.19
34.04	153.447
34.26	10.864
34.48	12.598
34.7	0.732
34.92	105.052
35.14	11.045
35.36	6.706
35.58	24.193
35.8	54.652
36.02	1.02
36.24	8.633
36.46	309.532
36.68	218.563
36.9	79.969
37.12	30.225
37.34	273.509
37.56	3.168
37.78	6.128
38	0.52
38.22	34.771
38.44	68.922
38.66	0.345
38.88	19.544
39.1	8.941
39.32	1.794
39.54	0.271
39.76	3.842
39.98	5.23
40.2	11.608
40.42	4.818
40.64	9.923
40.86	13.155
41.08	1.181
41.3	8.069
41.52	13.313
41.74	7.486
41.96	6.901
42.18	11.523
42.4	8.599
42.62	12.6
42.84	8.89
43.06	0.848
43.28	15.049
43.5	6.763
43.72	21.468
43.94	11.147
44.16	1.739
44.38	2.117
44.6	8.098
44.82	4.159
45.04	11.838
45.26	11.777
45.48	9.465
45.7	28.339
45.92	5.245
46.14	7.279
46.36	72.013
46.58	20.799
46.8	0.316
47.02	6.317
47.24	5.895
47.46	34.031
47.68	35.576
47.9	2.156
48.12	7.033
48.34	58.075
48.56	5.103
48.78	6.822
49	12.654
49.22	15.132
49.44	8.418
49.66	14.933
49.88	11.84
50.1	5.926
50.32	2.618
50.54	0.124
50.76	2.407
50.98	7.398
51.2	14.149
51.42	12.517
51.64	14.372
51.86	2.617
52.08	5.049
52.3	3.864
52.52	15.745
52.74	3.787
52.96	1.926
53.18	10.55
53.4	24.5
53.62	64.256
53.84	8.76
54.06	8.128
54.28	3.254
54.5	5.304
54.72	17.151
54.94	78.156
55.16	119.736
55.38	322.98
55.6	26.171
55.82	12.935
56.04	6.069
56.26	4.629
56.48	33.143
56.7	9.928
56.92	4.054
57.14	47.536
57.36	255.058
57.58	66.906
57.8	17.927
58.02	178.628
58.24	33.278
58.46	32.191
58.68	68.162
58.9	9.059
59.12	4.922
59.34	8.795
59.56	7.244
59.78	0.497
60	4.542
60.22	8.907
60.44	11.487
60.66	13.913
60.88	15.244
61.1	26.291
61.32	98.09
61.54	11.632
61.76	15.56
61.98	2.509
62.2	9.488
62.42	106.39
62.64	27.357
62.86	6.208
63.08	8.149
63.3	3.934
63.52	11.151
63.74	5.291
63.96	8.409
64.18	14.354
64.4	6.793
64.62	4.826
64.84	19.761
65.06	18.57
65.28	3.842
65.5	6.329
65.72	6.582
65.94	8.317
66.16	22.25
66.38	4.696
66.6	15.966
66.82	25.536
67.04	15.539
67.26	2.193
67.48	4.538
67.7	9.544
67.92	18.989
68.14	19.7
68.36	5.061
68.58	12.057
68.8	6.543
69.02	5.301
69.24	2.208
69.46	10.89
69.68	58.259
69.9	40.284
70.12	12.393
70.34	8.536
70.56	58.544
70.78	28.267
71	1.192
71.22	1.109
71.44	27.599
71.66	28.428
71.88	45.458
72.1	47.391
72.32	8.061
72.54	1.721
72.76	4.313
72.98	12.642
73.2	7.291
73.42	18.792
73.64	55.86
73.86	36.187
74.08	22.763
74.3	7.108
74.52	7.393
74.74	41.817
74.96	14.455
75.18	6.156
75.4	17.426
75.62	0.449
75.84	1.301
76.06	5.335
76.28	16.979
76.5	3.027
76.72	14.37
76.94	0.726
77.16	8.41
77.38	14.412
77.6	3.448
77.82	4.547
78.04	13.522
78.26	8.842
78.48	6.73
78.7	3.557
78.92	7.805
79.14	3.666
79.36	10.603
79.58	5.231
79.8	6.397
80.02	15.161
80.24	11.148
80.46	2.522
80.68	6.095
80.9	3.254
81.12	3.139
81.34	11.337
81.56	19.32
81.78	9.239
82	1.778
82.22	11.033
82.44	4.043
82.66	17.967
82.88	11.667
83.1	4.31
83.32	8.499
83.54	4.877
83.76	16.812
83.98	8.981
84.2	8.265
84.42	3.132
84.64	6.521
84.86	9.205
85.08	5.57
85.3	2.007
85.52	8.982
85.74	6.764
85.96	2.68
86.18	13.955
86.4	8.475
86.62	3.238
86.84	12.493
87.06	5.358
87.28	15.842
87.5	3.763
87.72	6.315
87.94	16.39
88.16	6.32
88.38	1.273
88.6	16.252
88.82	15.43
89.04	11.437
89.26	27.519
89.48	15.572
89.7	7.054
89.92	5.467
