Measurement: Powder, Xray Data XY Processed
Mineral: Adamite
Rruff sample: R060593
Ideal chemistry: Zn^2+^_2_As^5+^O_4_(OH)
Locality: Tsumeb mine, Tsumeb, Otavi District, Oshikoto, Namibia
Source: Michael Scott
Description: Bluish-green prismatic crystals
Diffraction sample description: Powder
Measured chemistry: (Zn_1.65_Cu_0.35_)_Î£=2_(As_1.00_O_4_)(OH) ; H not measured but estimated by difference and stoichiometry
Cell parameters: a: 8.390(2) b: 8.536(2) c: 6.020(2) alpha: 90 beta: 90 gamma: 90 volume: 431.18(7) crystal system: orthorhombic
x	intensity
5	0
5.22	6.50026
5.44	16.5285
5.66	5.55242
5.88	8.47198
6.1	10.9057
6.32	7.96735
6.54	10.2448
6.76	7.41723
6.98	5.25371
7.2	8.37984
7.42	22.8251
7.64	5.94243
7.86	12.357
8.08	5.84035
8.3	0.837673
8.52	12.2042
8.74	14.0394
8.96	13.4205
9.18	0.107117
9.4	8.81513
9.62	6.46375
9.84	10.0405
10.06	12.3177
10.28	10.4591
10.5	15.7772
10.72	7.59145
10.94	15.492
11.16	9.11405
11.38	7.00576
11.6	8.94054
11.82	5.68268
12.04	4.41801
12.26	5.95163
12.48	5.97613
12.7	12.3849
12.92	12.8736
13.14	13.6543
13.36	10.3903
13.58	5.41715
13.8	14.1326
14.02	7.92567
14.24	5.0196
14.46	12.2927
14.68	106.28
14.9	219.08
15.12	10.4865
15.34	19.0771
15.56	14.1191
15.78	12.164
16	5.82212
16.22	14.5933
16.44	6.23733
16.66	11.3724
16.88	1.72167
17.1	14.1809
17.32	5.86924
17.54	2.60362
17.76	14.977
17.98	165.784
18.2	371.561
18.42	26.6923
18.64	16.9668
18.86	8.24566
19.08	13.8163
19.3	15.033
19.52	9.28844
19.74	0.617912
19.96	10.3215
20.18	18.4244
20.4	13.0602
20.62	2.48503
20.84	65.1309
21.06	91.348
21.28	21.4148
21.5	12.9117
21.72	10.9131
21.94	14.8383
22.16	1.15138
22.38	6.77623
22.6	4.65629
22.82	11.4806
23.04	11.5996
23.26	24.0097
23.48	113.681
23.7	54.1347
23.92	12.7551
24.14	7.80563
24.36	26.9026
24.58	9.45357
24.8	7.94506
25.02	11.1295
25.24	10.4512
25.46	5.55664
25.68	8.92475
25.9	10.7889
26.12	2.79161
26.34	11.829
26.56	2.7937
26.78	16.2036
27	15.7446
27.22	10.8811
27.44	22.5899
27.66	11.3763
27.88	11.485
28.1	5.74801
28.32	3.10878
28.54	12.3296
28.76	19.3196
28.98	2.40623
29.2	1.49305
29.42	20.5418
29.64	161.501
29.86	227.242
30.08	167.778
30.3	10.5576
30.52	3.92902
30.74	20.6199
30.96	14.594
31.18	14.3091
31.4	9.57342
31.62	4.80767
31.84	2.81561
32.06	1.24825
32.28	2.66922
32.5	5.91886
32.72	12.2155
32.94	14.3122
33.16	109.154
33.38	194.498
33.6	107.106
33.82	32.6524
34.04	32.1337
34.26	10.6956
34.48	5.51507
34.7	0.626217
34.92	66.364
35.14	18.922
35.36	17.61
35.58	28.0358
35.8	11.0572
36.02	12.4736
36.24	16.1631
36.46	152.143
36.68	234.748
36.9	120.852
37.12	76.2067
37.34	6.0391
37.56	3.15383
37.78	8.96954
38	14.7136
38.22	32.6815
38.44	50.0448
38.66	20.5333
38.88	3.39357
39.1	5.16505
39.32	19.3365
39.54	1.16531
39.76	13.1587
39.98	10.307
40.2	2.64449
40.42	21.96
40.64	18.0492
40.86	4.13639
41.08	15.4367
41.3	18.2962
41.52	8.84821
41.74	9.47736
41.96	1.45945
42.18	0.794706
42.4	1.49732
42.62	4.75956
42.84	6.11052
43.06	14.1867
43.28	7.72944
43.5	16.1343
43.72	13.395
43.94	5.38152
44.16	7.32295
44.38	1.16352
44.6	9.96056
44.82	11.3976
45.04	12.0937
45.26	5.40805
45.48	8.00171
45.7	13.9286
45.92	1.65159
46.14	16.1523
46.36	22.8981
46.58	13.5999
46.8	22.659
47.02	3.50293
47.24	6.8107
47.46	1.72743
47.68	11.4038
47.9	8.74984
48.12	14.1101
48.34	15.5412
48.56	4.04541
48.78	15.2225
49	4.85608
49.22	19.0807
49.44	13.5098
49.66	6.98724
49.88	5.93348
50.1	7.20846
50.32	3.37043
50.54	6.53739
50.76	7.36122
50.98	12.0095
51.2	7.70823
51.42	4.56821
51.64	13.5236
51.86	7.42808
52.08	10.2857
52.3	3.80218
52.52	17.6842
52.74	1.0625
52.96	24.1256
53.18	14.8381
53.4	19.1825
53.62	7.62811
53.84	3.32263
54.06	4.71571
54.28	4.94093
54.5	9.252
54.72	3.86638
54.94	22.6805
55.16	19.9157
55.38	25.2202
55.6	10.9709
55.82	4.58686
56.04	23.0771
56.26	2.03267
56.48	17.0911
56.7	0.482243
56.92	10.4941
57.14	53.3792
57.36	103.785
57.58	77.5962
57.8	43.9336
58.02	11.1004
58.24	21.3776
58.46	26.6193
58.68	21.4702
58.9	4.33582
59.12	1.87019
59.34	9.32823
59.56	3.34769
59.78	1.83041
60	13.3265
60.22	3.98422
60.44	4.22391
60.66	7.48753
60.88	8.36491
61.1	4.68524
61.32	15.0261
61.54	20.5898
61.76	27.3065
61.98	14.4994
62.2	33.3623
62.42	23.0593
62.64	8.52401
62.86	6.18306
63.08	8.04197
63.3	2.3331
63.52	12.3295
63.74	7.69609
63.96	14.4262
64.18	9.77899
64.4	7.99581
64.62	9.29247
64.84	3.7158
65.06	10.5031
65.28	17.3981
65.5	9.69852
65.72	13.1358
65.94	2.61389
66.16	9.28616
66.38	3.62263
66.6	20.0795
66.82	20.5964
67.04	13.8398
67.26	13.1524
67.48	3.21745
67.7	18.5467
67.92	4.90587
68.14	12.5095
68.36	1.3995
68.58	3.19046
68.8	6.09495
69.02	17.3383
69.24	9.29735
69.46	10.0711
69.68	21.0494
69.9	34.5275
70.12	27.8543
70.34	13.7911
70.56	13.4687
70.78	8.79041
71	10.4783
71.22	0.126986
71.44	7.96778
71.66	23.1986
71.88	9.03411
72.1	19.3398
72.32	3.83298
72.54	11.8431
72.76	11.4338
72.98	14.1767
73.2	6.00645
73.42	6.96449
73.64	27.074
73.86	19.9235
74.08	14.2812
74.3	0.918411
74.52	15.9334
74.74	17.5608
74.96	7.6076
75.18	4.71619
75.4	4.5624
75.62	2.78553
75.84	7.84593
76.06	0.539381
76.28	22.1038
76.5	17.3096
76.72	10.1592
76.94	5.90023
77.16	15.0088
77.38	14.1779
77.6	12.9763
77.82	0.053598
78.04	4.5413
78.26	1.28282
78.48	4.3889
78.7	3.44064
78.92	11.8439
79.14	10.004
79.36	9.17594
79.58	8.29166
79.8	8.96975
80.02	1.90661
80.24	6.8767
80.46	0.787247
80.68	9.50879
80.9	4.64825
81.12	6.54409
81.34	14.0052
81.56	3.94036
81.78	16.9447
82	7.73804
82.22	12.8568
82.44	3.87468
82.66	5.67278
82.88	7.7558
83.1	12.9485
83.32	6.70201
83.54	10.032
83.76	7.33789
83.98	14.4125
84.2	8.29387
84.42	5.33634
84.64	10.4788
84.86	6.73702
85.08	5.30573
85.3	3.48534
85.52	6.48368
85.74	14.3109
85.96	6.74366
86.18	5.46071
86.4	7.18997
86.62	3.25962
86.84	4.09433
87.06	7.84617
87.28	26.8884
87.5	11.9728
87.72	22.2346
87.94	22.629
88.16	5.84064
88.38	18.4757
88.6	14.2857
88.82	7.0582
89.04	13.0479
89.26	17.6589
89.48	20.6288
89.7	0.999516
89.92	5.24877
