Measurement: Powder, Xray Data XY Processed
Mineral: Aegirine
Rruff sample: R050074
Ideal chemistry: NaFe^3+^Si_2_O_6_
Locality: Mt. Malosa, Zomba, Chilwa, Alkaline Area, Malawi
Source: Rock Currier
Description: Black prismatic single crystal
Diffraction sample description: Powder
Measured chemistry: (Na_0.98_Ca_0.02_)_Σ=1_(Fe^3+^_0.96_Ti_0.01_Mn_0.03_)_Σ=1_Si_2.00_O_6_
Cell parameters: a: 9.682(1) b: 8.8145(6) c: 5.306(4) alpha: 90. beta: 107.08(3) gamma: 90. volume: 432.9(3) crystal system: monoclinic
x	intensity
5	0
5.22	34.165
5.44	12.966
5.66	27.406
5.88	10.174
6.1	6.626
6.32	12.47
6.54	5.286
6.76	35.541
6.98	17.377
7.2	36.486
7.42	10.63
7.64	41.503
7.86	18.815
8.08	7.865
8.3	3.183
8.52	30.299
8.74	14.902
8.96	4.097
9.18	11.446
9.4	14.005
9.62	2.241
9.84	13.8
10.06	20.726
10.28	9.724
10.5	4.47
10.72	25.111
10.94	15.907
11.16	22.681
11.38	21.154
11.6	12.395
11.82	18.551
12.04	22.803
12.26	1.575
12.48	34.119
12.7	7.331
12.92	19.011
13.14	22.255
13.36	22.787
13.58	31.487
13.8	88.388
14.02	67.033
14.24	28.574
14.46	27.216
14.68	16.404
14.9	1.642
15.12	7.537
15.34	25.725
15.56	5.382
15.78	0.153
16	8.253
16.22	18.279
16.44	38.529
16.66	4.683
16.88	32.496
17.1	18.105
17.32	17.946
17.54	6.902
17.76	20.629
17.98	11.416
18.2	0.925
18.42	21.546
18.64	0.125
18.86	11.462
19.08	33.792
19.3	14.555
19.52	27.29
19.74	9.896
19.96	36.964
20.18	107.53
20.4	31.165
20.62	12.781
20.84	13.849
21.06	13.136
21.28	15.88
21.5	4.957
21.72	5.753
21.94	26.387
22.16	19.395
22.38	31.735
22.6	37.349
22.82	15.082
23.04	22.529
23.26	3.551
23.48	11.918
23.7	29.674
23.92	8.794
24.14	7.172
24.36	15.78
24.58	24.937
24.8	17.39
25.02	24.542
25.24	16.27
25.46	20.105
25.68	16.494
25.9	0.647
26.12	19.185
26.34	12.811
26.56	20.397
26.78	18.411
27	0.06
27.22	16.807
27.44	26.699
27.66	16.868
27.88	34.58
28.1	45.432
28.32	9.47
28.54	3.769
28.76	13.261
28.98	24.26
29.2	14.945
29.42	10.049
29.64	9.695
29.86	69.413
30.08	47.404
30.3	12.138
30.52	29.57
30.74	410.799
30.96	35.662
31.18	46.866
31.4	23.514
31.62	17.159
31.84	13.817
32.06	63.632
32.28	14.812
32.5	20.963
32.72	12.693
32.94	30.252
33.16	23.39
33.38	16.529
33.6	19.996
33.82	0.374
34.04	28.51
34.26	20.846
34.48	24.638
34.7	0.969
34.92	31.536
35.14	45.795
35.36	18.374
35.58	19.75
35.8	14.235
36.02	7.484
36.24	125.337
36.46	23.067
36.68	11.769
36.9	9.224
37.12	10.035
37.34	0.827
37.56	29.786
37.78	22.868
38	12.964
38.22	9.406
38.44	10.522
38.66	3.443
38.88	33.599
39.1	4.287
39.32	29.78
39.54	32.905
39.76	1.423
39.98	23.053
40.2	25.625
40.42	53.733
40.64	44.333
40.86	15.822
41.08	25.847
41.3	2.028
41.52	7.783
41.74	30.813
41.96	21.978
42.18	7.286
42.4	27.513
42.62	62.274
42.84	49.341
43.06	31.335
43.28	20.817
43.5	8.612
43.72	16.189
43.94	1.25
44.16	11.85
44.38	26.248
44.6	21.778
44.82	42.619
45.04	13.028
45.26	8.147
45.48	19.596
45.7	35.764
45.92	35.901
46.14	28.631
46.36	30.063
46.58	15.091
46.8	1.206
47.02	31.669
47.24	6.013
47.46	19.325
47.68	28.808
47.9	6.5
48.12	28.034
48.34	6.971
48.56	27.634
48.78	18.524
49	1.053
49.22	43.668
49.44	40.251
49.66	27.012
49.88	17.543
50.1	26.571
50.32	37.395
50.54	43.895
50.76	25.497
50.98	19.847
51.2	31.741
51.42	14.067
51.64	12.282
51.86	25.434
52.08	4.474
52.3	4.546
52.52	18.691
52.74	39.689
52.96	86.128
53.18	34.437
53.4	10.051
53.62	14.299
53.84	5.877
54.06	13.198
54.28	8.512
54.5	24.788
54.72	11.101
54.94	32.164
55.16	14.991
55.38	16.684
55.6	21.529
55.82	10.094
56.04	9.602
56.26	27.001
56.48	0.069
56.7	25.639
56.92	18.457
57.14	59.556
57.36	43.526
57.58	3.483
57.8	113.397
58.02	35.187
58.24	0.827
58.46	8.079
58.68	29.065
58.9	26.032
59.12	21.212
59.34	33.169
59.56	3.914
59.78	12.566
60	4.458
60.22	28.237
60.44	52.499
60.66	36.945
60.88	32.596
61.1	7.483
61.32	27.7
61.54	17.665
61.76	39.618
61.98	19.846
62.2	31.77
62.42	22.475
62.64	15.035
62.86	25.437
63.08	5.805
63.3	22.937
63.52	19.85
63.74	10.925
63.96	36.703
64.18	24.972
64.4	14.004
64.62	20.292
64.84	15.617
65.06	7.066
65.28	7.925
65.5	4.891
65.72	13.896
65.94	20.769
66.16	20.306
66.38	35.368
66.6	26.563
66.82	50.236
67.04	31.383
67.26	36.889
67.48	16.849
67.7	19.739
67.92	27.818
68.14	3.103
68.36	7.602
68.58	27.618
68.8	15.656
69.02	10.622
69.24	18.711
69.46	20.813
69.68	6.37
69.9	15.141
70.12	14.763
70.34	15.074
70.56	17.395
70.78	28.209
71	24.972
71.22	4.638
71.44	13.253
71.66	18.169
71.88	31.728
72.1	10.045
72.32	21.748
72.54	21.771
72.76	22.263
72.98	29.662
73.2	18.028
73.42	14.379
73.64	15.993
73.86	20.528
74.08	1.041
74.3	25.799
74.52	10.602
74.74	44.441
74.96	0.706
75.18	15.368
75.4	22.952
75.62	23.338
75.84	24.439
76.06	17.479
76.28	21.283
76.5	30.047
76.72	21.223
76.94	27.702
77.16	27.624
77.38	31.168
77.6	24.177
77.82	27.568
78.04	28.021
78.26	19.499
78.48	6.849
78.7	16.087
78.92	4.082
79.14	14.926
79.36	28.268
79.58	15.603
79.8	10.628
80.02	13.904
80.24	19.843
80.46	6.842
80.68	14.657
80.9	8.427
81.12	18.597
81.34	25.035
81.56	21.7
81.78	8.208
82	11.794
82.22	20.597
82.44	10.168
82.66	2.852
82.88	15.431
83.1	11.319
83.32	13.403
83.54	3.631
83.76	13.761
83.98	7.368
84.2	30.067
84.42	3.308
84.64	21.901
84.86	2.515
85.08	18.3
85.3	25.919
85.52	2.984
85.74	1.214
85.96	38.783
86.18	12.987
86.4	10.288
86.62	18.593
86.84	21.53
87.06	10.254
87.28	9.427
87.5	31.316
87.72	18.336
87.94	24.859
88.16	3.518
88.38	14.19
88.6	15.89
88.82	3.464
89.04	10.251
89.26	28.429
89.48	11.864
89.7	0.15
89.92	30.478
