Measurement: Powder, Xray Data XY Processed
Mineral: Aeschynite-(Y)
Rruff sample: R080045
Ideal chemistry: (Y^3+^,Ca,Th^4+^)(Ti^4+^,Nb^5+^)_2_(O,OH)_6_
Locality: Hittero, Vest-Agder, Norway
Source: Herb Obodda
Description: Light brown glassy, from black amorphous sample R060312 after heating at T = 850 C for 18 hours
Diffraction sample description: Powder
Cell parameters: a: 5.190(1) b: 10.949(3) c: 7.392(1) alpha: 90 beta: 90 gamma: 90 volume: 420.0(1) crystal system: orthorhombic
x	intensity
5	0
5.22	10.9611
5.44	8.25581
5.66	20.6154
5.88	7.19732
6.1	29.3048
6.32	12.5651
6.54	11.649
6.76	11.8482
6.98	1.97949
7.2	3.0335
7.42	20.6779
7.64	11.1787
7.86	3.15249
8.08	14.7093
8.3	0.893955
8.52	10.6693
8.74	10.2228
8.96	7.5535
9.18	20.0591
9.4	8.3804
9.62	15.6284
9.84	10.3587
10.06	8.14669
10.28	10.5306
10.5	2.49202
10.72	11.3437
10.94	10.4051
11.16	2.9039
11.38	7.76402
11.6	21.3958
11.82	21.1058
12.04	7.96569
12.26	6.74852
12.48	9.13431
12.7	10.0523
12.92	5.7468
13.14	2.59635
13.36	27.0805
13.58	4.30976
13.8	1.48597
14.02	9.56266
14.24	4.03293
14.46	8.9139
14.68	16.0566
14.9	7.63749
15.12	8.7399
15.34	8.97321
15.56	7.30539
15.78	22.7556
16	14.6246
16.22	61.9346
16.44	9.06267
16.66	9.39837
16.88	4.29339
17.1	21.189
17.32	7.26665
17.54	13.1255
17.76	5.06634
17.98	10.9087
18.2	8.92065
18.42	8.80762
18.64	13.5204
18.86	7.32949
19.08	3.1919
19.3	3.08442
19.52	4.62945
19.74	9.63973
19.96	14.4299
20.18	47.8553
20.4	20.1248
20.62	4.23789
20.84	15.9085
21.06	13.2493
21.28	5.44878
21.5	0.247963
21.72	11.022
21.94	16.4883
22.16	16.0311
22.38	14.9847
22.6	12.7924
22.82	15.7537
23.04	26.8015
23.26	7.38801
23.48	2.18698
23.7	15.0794
23.92	3.12883
24.14	0.460432
24.36	6.3113
24.58	8.92724
24.8	1.24241
25.02	1.43606
25.24	8.18328
25.46	12.8059
25.68	6.63697
25.9	18.4733
26.12	6.50572
26.34	7.33329
26.56	12.0729
26.78	14.7289
27	17.7535
27.22	21.34
27.44	11.2236
27.66	3.00662
27.88	8.65862
28.1	4.91518
28.32	6.25206
28.54	3.99976
28.76	3.4634
28.98	13.806
29.2	54.5884
29.42	5.94188
29.64	19.2914
29.86	112.196
30.08	65.7862
30.3	28.4576
30.52	60.1361
30.74	182.095
30.96	93.3592
31.18	1.89224
31.4	12.7589
31.62	0.199398
31.84	3.38539
32.06	21.9497
32.28	57.9017
32.5	17.2156
32.72	10.4299
32.94	6.16984
33.16	1.48652
33.38	13.9019
33.6	6.26654
33.82	11.4676
34.04	16.4862
34.26	0.589676
34.48	21.2353
34.7	51.4684
34.92	41.1144
35.14	24.6177
35.36	11.5391
35.58	11.6364
35.8	5.46449
36.02	19.1211
36.24	5.76204
36.46	0.613447
36.68	15.1413
36.9	16.8136
37.12	33.0744
37.34	17.0843
37.56	10.0356
37.78	19.0279
38	0.220509
38.22	14.3387
38.44	2.74578
38.66	1.94762
38.88	11.7147
39.1	2.20783
39.32	12.6753
39.54	21.2315
39.76	6.12631
39.98	13.7377
40.2	8.19824
40.42	38.2086
40.64	22.7062
40.86	10.2781
41.08	18.635
41.3	11.7695
41.52	2.99993
41.74	8.19353
41.96	6.79921
42.18	22.787
42.4	12.1256
42.62	9.76201
42.84	14.9499
43.06	0.031523
43.28	1.64125
43.5	11.2814
43.72	3.9822
43.94	22.6565
44.16	5.26029
44.38	24.6566
44.6	13.1355
44.82	12.5284
45.04	8.99304
45.26	3.18408
45.48	7.44725
45.7	14.3512
45.92	35.5844
46.14	15.0474
46.36	23.5393
46.58	19.9159
46.8	24.19
47.02	10.623
47.24	10.192
47.46	9.04149
47.68	8.47488
47.9	22.9032
48.12	7.86058
48.34	15.5927
48.56	16.151
48.78	5.57013
49	17.2652
49.22	41.8933
49.44	31.9366
49.66	4.85426
49.88	9.04538
50.1	21.8822
50.32	10.798
50.54	18.1391
50.76	10.8031
50.98	23.1914
51.2	9.89614
51.42	10.3013
51.64	16.2206
51.86	6.83525
52.08	21.0272
52.3	2.41249
52.52	7.18579
52.74	18.1912
52.96	1.89037
53.18	10.6636
53.4	9.38354
53.62	7.099
53.84	5.90207
54.06	10.1778
54.28	22.1943
54.5	12.5928
54.72	31.7264
54.94	12.6984
55.16	6.21835
55.38	15.9112
55.6	6.72746
55.82	1.87215
56.04	15.5205
56.26	12.0888
56.48	9.31926
56.7	20.2409
56.92	4.66898
57.14	9.68839
57.36	12.2998
57.58	14.733
57.8	1.00509
58.02	5.15208
58.24	6.42972
58.46	6.89916
58.68	19.0234
58.9	32.3148
59.12	30.0369
59.34	6.75165
59.56	9.94256
59.78	11.0909
60	6.04609
60.22	10.5587
60.44	24.5609
60.66	4.96819
60.88	1.2818
61.1	4.6204
61.32	21.4365
61.54	38.1026
61.76	12.8074
61.98	12.4007
62.2	12.582
62.42	10.1352
62.64	4.1823
62.86	5.80888
63.08	6.45875
63.3	2.03034
63.52	14.2449
63.74	15.8429
63.96	3.13091
64.18	7.38002
64.4	6.63984
64.62	21.2233
64.84	11.838
65.06	11.0782
65.28	12.382
65.5	13.2542
65.72	7.52417
65.94	11.4937
66.16	8.12482
66.38	5.16214
66.6	4.15589
66.82	6.19375
67.04	9.21277
67.26	0.930628
67.48	8.96198
67.7	9.17015
67.92	7.54264
68.14	11.1703
68.36	6.96991
68.58	20.0611
68.8	10.1819
69.02	1.81756
69.24	10.7318
69.46	6.07861
69.68	3.19344
69.9	11.6753
70.12	5.7435
70.34	13.6556
70.56	11.7106
70.78	8.0283
71	2.91018
71.22	10.1023
71.44	11.5745
71.66	11.4322
71.88	8.96271
72.1	6.9581
72.32	3.27811
72.54	5.35553
72.76	6.03591
72.98	11.0639
73.2	9.70089
73.42	7.70504
73.64	11.8157
73.86	5.86243
74.08	8.44144
74.3	2.55478
74.52	12.5891
74.74	0.713802
74.96	9.90992
75.18	12.0727
75.4	10.1146
75.62	7.43527
75.84	21.5685
76.06	12.3842
76.28	11.6486
76.5	13.4883
76.72	20.523
76.94	4.66581
77.16	8.01215
77.38	2.94729
77.6	5.07015
77.82	5.96344
78.04	3.63991
78.26	20.3713
78.48	5.63953
78.7	6.37732
78.92	2.982
79.14	12.6917
79.36	5.47882
79.58	4.29352
79.8	3.42252
80.02	11.4523
80.24	19.6768
80.46	20.9791
80.68	8.38455
80.9	17.4139
81.12	8.82925
81.34	5.94047
81.56	2.76808
81.78	7.34188
82	3.48546
82.22	13.3631
82.44	9.31626
82.66	9.42201
82.88	9.14425
83.1	30.7531
83.32	18.5397
83.54	11.0026
83.76	11.2361
83.98	8.01373
84.2	13.521
84.42	8.6617
84.64	2.99772
84.86	13.0576
85.08	2.96998
85.3	4.30004
85.52	6.41146
85.74	5.47663
85.96	14.5369
86.18	9.66404
86.4	1.61637
86.62	5.7286
86.84	10.6665
87.06	8.56807
87.28	2.86075
87.5	0.207823
87.72	10.0566
87.94	9.34362
88.16	7.90318
88.38	14.6419
88.6	12.8015
88.82	17.5298
89.04	5.06628
89.26	9.43618
89.48	8.14068
89.7	12.6477
89.92	0.324203
