Measurement: Powder, Xray Data XY Processed
Mineral: Agardite-(Y)
Rruff sample: R060711
Ideal chemistry: Cu^2+^_6_Y^3+^(As^5+^O_4_)_3_(OH)_6_3H_2_O
Locality: Brumado, Bahia, Brazil
Source: Bob Jenkins
Description: Mass of pale green fibers
Diffraction sample description: Powder, using Mo radiation
Measured chemistry: (Cu_5.73_Fe_0.04_)_Σ=5.77_(Y_0.32_Gd_0.10_Nd_0.03_Sm_0.08_Ca_0.39_)_Σ=0.92_[(AsO_4_)_0.79_(PO_4_)_0.06_(SiO_4_)_0.01_]_3_(OH)_6_·4.58H_2_O
Cell parameters: a: 13.525(3) b: 13.525(3) c: 5.926(2) alpha: 90 beta: 90 gamma: 120 volume: 938.7(3) crystal system: hexagonal
x	intensity
5.86	0
5.97	14.3065
6.08	16.3828
6.19	22.137
6.3	52.1438
6.41	65.3384
6.52	42.7846
6.63	63.2322
6.74	57.9446
6.85	64.3627
6.96	58.6824
7.07	55.494
7.18	42.2216
7.29	14.4803
7.4	21.4855
7.51	79.8394
7.62	140.707
7.73	142.01
7.84	56.2501
7.95	33.9094
8.06	0.33252
8.17	5.99756
8.28	7.99133
8.39	4.73645
8.5	4.77185
8.61	5.14331
8.72	0.273682
8.83	27.7211
8.94	460.928
9.05	1188.79
9.16	1442.69
9.27	875.287
9.38	290.118
9.49	114.07
9.6	232.909
9.71	368.367
9.82	316.164
9.93	137.878
10.04	43.4891
10.15	36.9945
10.26	132.124
10.37	182.583
10.48	120.697
10.59	62.2617
10.7	5.26379
10.81	3.13757
10.92	8.85803
11.03	17.3762
11.14	103.117
11.25	547.397
11.36	1312.73
11.47	1710.1
11.58	1070.5
11.69	367.563
11.8	244.376
11.91	405.34
12.02	459.314
12.13	248.718
12.24	175.368
12.35	436.588
12.46	747.25
12.57	583.761
12.68	208.552
12.79	69.9376
12.9	27.0834
13.01	27.3969
13.12	6.16772
13.23	5.5061
13.34	16.8108
13.45	18.7307
13.56	121.359
13.67	614.991
13.78	1562.74
13.89	1708.32
14	855.038
14.11	461.617
14.22	545.831
14.33	457.321
14.44	205.661
14.55	52.2719
14.66	17.6428
14.77	4.198
14.88	217.66
14.99	772.715
15.1	1145.45
15.21	641.236
15.32	153.366
15.43	48.4121
15.54	19.2902
15.65	97.2701
15.76	492.885
15.87	976.587
15.98	705.447
16.09	130.99
16.2	4.32007
16.31	202.203
16.42	1347.23
16.53	3173.41
16.64	3172.06
16.75	1316.39
16.86	242.602
16.97	39.042
17.08	14.7559
17.19	21.3629
17.3	32.1517
17.41	54.4467
17.52	29.2111
17.63	13.7228
17.74	0.56665
17.85	8.13599
17.96	3.60986
18.07	38.0553
18.18	112.972
18.29	237.684
18.4	258.508
18.51	203.015
18.62	224.475
18.73	179.564
18.84	67.7317
18.95	22.8152
19.06	35.7561
19.17	114.795
19.28	295.436
19.39	354.237
19.5	318.583
19.61	304.988
19.72	216.46
19.83	88.808
19.94	2.7428
20.05	7.03821
20.16	9.4248
20.27	30.6827
20.38	156.56
20.49	319.842
20.6	270.733
20.71	151.073
20.82	88.92
20.93	79.3713
21.04	126.374
21.15	148.041
21.26	75.8969
21.37	8.60925
21.48	6.9552
21.59	3.5929
21.7	11.2729
21.81	17.0537
21.92	25.2726
22.03	35.6862
22.14	100.71
22.25	191.976
22.36	140.055
22.47	99.8232
22.58	210.386
22.69	552.313
22.8	755.912
22.91	792.183
23.02	831.451
23.13	633.424
23.24	255.249
23.35	26.6349
23.46	18.1635
23.57	13.6108
23.68	204.804
23.79	481.792
23.9	550.362
24.01	495.845
24.12	401.245
24.23	345.43
24.34	278.798
24.45	176.422
24.56	79.5111
24.67	10.0256
24.78	17.6587
24.89	116.152
25	450.871
25.11	669.598
25.22	683.462
25.33	602.446
25.44	367.715
25.55	177.127
25.66	157.875
25.77	275.878
25.88	269.279
25.99	143.079
26.1	74.0248
26.21	78.0212
26.32	107.759
26.43	81.4004
26.54	63.7704
26.65	179.36
26.76	283.42
26.87	208.179
26.98	91.2385
27.09	4.70276
27.2	4.823
27.31	12.259
27.42	5.31335
27.53	37.6401
27.64	246.994
27.75	585.623
27.86	797.151
27.97	744.228
28.08	496.231
28.19	250.026
28.3	119.731
28.41	114.693
28.52	229.41
28.63	246.963
28.74	192.319
28.85	82.3704
28.96	7.78107
29.07	12.9813
29.18	16.5567
29.29	97.8386
29.4	124.239
29.51	95.9386
29.62	78.6675
29.73	125.23
29.84	190.18
29.95	101.644
30.06	26.1934
30.17	5.76502
30.28	14.4512
30.39	93.135
30.5	174.297
30.61	207.142
30.72	145.811
30.83	50.2769
30.94	38.4713
31.05	112.17
31.16	210.673
31.27	186.805
31.38	88.1679
31.49	12.3132
31.6	16.2895
31.71	117.794
31.82	190.855
31.93	207.335
32.04	267.204
32.15	359.342
32.26	292.865
32.37	182.544
32.48	68.4463
32.59	16.3219
32.7	6.83875
32.81	30.4541
32.92	70.4288
33.03	64.3932
33.14	30.8195
33.25	37.7715
33.36	91.3619
33.47	111.311
33.58	96.0044
33.69	78.3983
33.8	30.4401
33.91	35.2895
34.02	76.1419
34.13	108.446
34.24	72.6911
34.35	38.7706
34.46	16.2318
34.57	2.29364
34.68	6.37897
34.79	6.09613
34.9	6.31616
35.01	42.2237
35.12	83.0536
35.23	76.5807
35.34	63.4792
35.45	36.4019
35.56	36.1571
35.67	33.2092
35.78	0.973633
35.89	13.7661
36	2.48889
36.11	50.4277
36.22	159.091
36.33	220.636
36.44	178.183
36.55	168.075
36.66	125.848
36.77	51.72
36.88	37.4288
36.99	68.3163
37.1	110.646
37.21	115.478
37.32	117.98
37.43	47.6976
37.54	18.7746
37.65	10.254
37.76	35.1849
37.87	59.5333
37.98	56.1126
38.09	65.9001
38.2	46.0885
38.31	34.4962
38.42	37.6712
38.53	50.3493
38.64	45.5473
38.75	53.9768
38.86	7.5318
38.97	3.86963
39.08	3.6651
39.19	9.79779
39.3	5.33038
39.41	17.2899
39.52	49.2969
39.63	84.4828
39.74	105.797
39.85	90.3512
39.96	84.8342
40.07	59.5138
40.18	94.8948
40.29	117.482
40.4	76.9542
40.51	56.4423
40.62	93.4387
40.73	69.0844
40.84	43.02
40.95	9.06812
41.06	5.70123
41.17	26.1769
41.28	13.2562
41.39	20.1051
41.5	16.5426
41.61	43.9809
41.72	81.1501
41.83	39.8944
41.94	23.8349
42.05	40.7774
42.16	44.109
42.27	42.0706
42.38	31.3676
42.49	39.9533
42.6	17.684
42.71	11.6927
42.82	12.4664
42.93	19.4696
43.04	47.4641
43.15	72.4937
43.26	97.2722
43.37	91.7901
43.48	47.3031
43.59	22.9077
43.7	20.9036
43.81	14.4879
43.92	16.397
44.03	44.2682
44.14	48.312
44.25	42.0831
44.36	64.1858
44.47	14.3094
44.58	5.52484
44.69	12.8184
44.8	10.6328
44.91	15.3949
45.02	1.67304
45.13	16.1102
45.24	22.7782
45.35	30.1754
45.46	23.0837
45.57	25.3414
45.68	19.0409
45.79	40.7617
45.9	7.20026
46.01	7.58044
46.12	26.6663
46.23	3.229
46.34	26.8644
46.45	37.4456
46.56	42.2103
46.67	74.5934
46.78	56.5715
46.89	42.6031
47	38.0573
47.11	8.78912
47.22	3.02606
47.33	3.05463
47.44	24.0615
47.55	40.2572
47.66	32.8243
47.77	26.326
47.88	40.2045
47.99	17.739
48.1	39.9485
48.21	8.02942
48.32	31.1003
48.43	40.9833
48.54	30.7301
48.65	35.8543
48.76	34.1264
48.87	37.5015
48.98	53.21
49.09	62.3664
