Measurement: Powder, Xray Data XY Processed
Mineral: Agardite-(Y)
Rruff sample: R060924
Ideal chemistry: Cu^2+^_6_Y^3+^(As^5+^O_4_)_3_(OH)_6_3H_2_O
Locality: Bou Skour mine, Djebel Sarhro, Morocco
Source: Bob Jenkins
Description: Light bluish-green flexible fibers
Diffraction sample description: Powder, using Mo radiation
Measured chemistry: (Cu_5.81_Ca_0.11_Fe_0.02_)_Σ=5.94_(Y_0.51_Nd_0.05_Gd_0.04_La_0.03_Sm_0.02_Pr_0.01_Ca_0.34_)_Σ=1.00_[(AsO_4_)_0.85_(PO_4_)_0.03_(SiO_4_)_0.01_]_3_(OH)_6_·4.04H_2_O
Cell parameters: a: 13.547(3) b: 13.547(3) c: 5.920(2) alpha: 90 beta: 90 gamma: 120 volume: 940.9(5) crystal system: hexagonal
x	intensity
3.35	0
3.5	146.599
3.65	83.7928
3.8	14.8741
3.95	2.65998
4.1	11.8296
4.25	140.55
4.4	276.965
4.55	415.333
4.7	599.523
4.85	805.976
5	907.638
5.15	999.532
5.3	1056.27
5.45	1125.4
5.6	1062.21
5.75	1052.31
5.9	991.581
6.05	964.86
6.2	933.301
6.35	837.248
6.5	849.461
6.65	761.196
6.8	755.417
6.95	692.124
7.1	627.117
7.25	570.65
7.4	510.279
7.55	554.13
7.7	724.657
7.85	667.467
8	445.479
8.15	276.339
8.3	291.186
8.45	252.097
8.6	203.976
8.75	228.037
8.9	477.297
9.05	1773.62
9.2	2784.01
9.35	1870.55
9.5	575.451
9.65	493.094
9.8	726.563
9.95	541.193
10.1	191.541
10.25	178.695
10.4	264.142
10.55	211.48
10.7	23.0447
10.85	15.6042
11	49.5244
11.15	12.3713
11.3	774.085
11.45	2170.14
11.6	2328.11
11.75	943.946
11.9	518.576
12.05	723.85
12.2	539.811
12.35	565.073
12.5	1011.26
12.65	880.435
12.8	245.332
12.95	49.7903
13.1	13.0849
13.25	18.1718
13.4	30.065
13.55	5.45422
13.7	923.702
13.85	2461.59
14	2585.95
14.15	1383.11
14.3	883.669
14.45	615.082
14.6	184.937
14.75	40.1476
14.9	334.027
15.05	1327.34
15.2	1753.07
15.35	1008.06
15.5	288.118
15.65	250.966
15.8	865.493
15.95	1422.06
16.1	1045.29
16.25	383.656
16.4	1180.73
16.55	3924.04
16.7	5396.4
16.85	2940.3
17	575.129
17.15	74.6994
17.3	42.4982
17.45	35.7378
17.6	19.6101
17.75	4.306
17.9	13.3747
18.05	13.3492
18.2	73.9704
18.35	273.08
18.5	370.199
18.65	375.613
18.8	297.414
18.95	118.144
19.1	37.9335
19.25	268.459
19.4	543.446
19.55	624.25
19.7	510.072
19.85	291.755
20	50.0784
20.15	0.194265
20.3	52.6267
20.45	274.735
20.6	530.505
20.75	386.759
20.9	150.619
21.05	148.501
21.2	180.452
21.35	115.4
21.5	22.243
21.65	2.09158
21.8	11.5964
21.95	20.0832
22.1	24.7857
22.25	178.451
22.4	255.598
22.55	223.214
22.7	660.163
22.85	1260.44
23	1494.6
23.15	1348.08
23.3	674.748
23.45	92.3448
23.6	25.0744
23.75	427.451
23.9	888.049
24.05	994.447
24.2	787.442
24.35	615.77
24.5	386.369
24.65	105.304
24.8	0.389172
24.95	298.962
25.1	976.464
25.25	1365.04
25.4	1124.54
25.55	637.077
25.7	363.348
25.85	472.614
26	402.368
26.15	182.445
26.3	109.502
26.45	124.164
26.6	183.303
26.75	354.183
26.9	389.804
27.05	151.341
27.2	35.7241
27.35	1.44484
27.5	8.25476
27.65	184.058
27.8	880.109
27.95	1428.02
28.1	1142.12
28.25	492.857
28.4	174.504
28.55	258.574
28.7	402.781
28.85	254.52
29	0.381672
29.15	4.0254
29.3	77.1034
29.45	183.197
29.6	157.284
29.75	195.833
29.9	277.732
30.05	177.81
30.2	32.2148
30.35	112.785
30.5	257.479
30.65	429.545
30.8	339.045
30.95	203.977
31.1	305.284
31.25	461.27
31.4	376.828
31.55	147.26
31.7	169.117
31.85	366.419
32	489.56
32.15	615.261
32.3	559.028
32.45	324.815
32.6	26.7128
32.75	15.1279
32.9	53.126
33.05	94.043
33.2	54.2053
33.35	83.6598
33.5	136.034
33.65	109.625
33.8	36.4294
33.95	16.3636
34.1	112.097
34.25	152.068
34.4	79.5606
34.55	9.72151
34.7	3.71365
34.85	7.10881
35	15.4328
35.15	87.9511
35.3	106.918
35.45	66.4046
35.6	59.2692
35.75	37.4951
35.9	17.9777
36.05	17.6128
36.2	187.273
36.35	412.531
36.5	398.896
36.65	329.535
36.8	172.942
36.95	124.458
37.1	195.489
37.25	263.933
37.4	252.82
37.55	163.015
37.7	70.9812
37.85	106.472
38	155.746
38.15	137.351
38.3	85.048
38.45	53.3763
38.6	78.0993
38.75	97.7034
38.9	23.0643
39.05	4.53057
39.2	2.89472
39.35	11.5226
39.5	4.84743
39.65	109.226
39.8	161.068
39.95	135.916
40.1	119.68
40.25	159.273
40.4	164.525
40.55	147.366
40.7	159.356
40.85	88.1977
41	30.5949
41.15	13.2421
41.3	40.6739
41.45	59.3368
41.6	83.5089
41.75	132.375
41.9	91.294
42.05	96.1836
42.2	130.963
42.35	108.546
42.5	147.156
42.65	90.6394
42.8	62.3268
42.95	98.748
43.1	146.853
43.25	209.008
43.4	217.476
43.55	129.492
43.7	54.9882
43.85	4.06832
44	1.60632
44.15	69.989
44.3	81.0494
44.45	47.1263
44.6	5.13342
44.75	2.96205
44.9	3.3401
45.05	7.88129
45.2	8.29923
45.35	17.3709
45.5	17.5098
45.65	39.7084
45.8	24.6501
45.95	12.0014
46.1	16.7425
46.25	26.2802
46.4	61.0885
46.55	92.2992
46.7	121.967
46.85	158.163
47	113.041
47.15	76.8181
47.3	29.4683
47.45	48.1854
47.6	96.6879
47.75	100.144
47.9	123.949
48.05	86.3323
48.2	55.9695
48.35	51.6023
48.5	26.482
48.65	46.6661
48.8	33.3591
48.95	26.8481
49.1	42.8918
49.25	73.5701
49.4	62.3452
49.55	66.4954
49.7	14.2296
49.85	2.40054
50	38.301
50.15	6.10268
50.3	6.73272
50.45	26.4229
50.6	7.79098
50.75	1.82537
50.9	15.637
51.05	2.36137
51.2	3.87029
51.35	46.1509
51.5	48.3363
51.65	68.1628
51.8	67.3941
51.95	105.91
52.1	72.5734
52.25	39.9144
52.4	49.5105
52.55	2.54051
52.7	14.2231
52.85	36.6771
53	10.7245
53.15	14.6342
53.3	0
