Measurement: Powder, Xray Data XY Processed
Mineral: Agardite-(Y)
Rruff sample: R070357
Ideal chemistry: Cu^2+^_6_Y^3+^(As^5+^O_4_)_3_(OH)_6_3H_2_O
Locality: Hayashi, Setoda, Ikuchi Island, Hiroshima Prefecture, Chugoku Region, Honshu Island, Japan
Source: Michael Scott
Description: Green acicular to fibrous in spherical aggregates
Diffraction sample description: Powder, using Mo radiation
Measured chemistry: (Cu_5.59_Ca_0.28_Zn_0.03_Fe_0.01_)_Σ=5.91_(Y_0.35_La_0.08_Nd_0.06_Gd_0.03_Ce_0.02_Sm_0.01_Pr_0.01_Al_0.50_)_Σ=1.05_[(AsO_4_)_0.80_(SiO_4_)_0.14_(PO_4_)_0.02_]_3_(OH)_6_·3.51H_2_O
Cell parameters: a: 13.571(2) b: 13.571(2) c: 5.904(2) alpha: 90 beta: 90 gamma: 120 volume: 941.8(3) crystal system: hexagonal
x	intensity
6	0
6.11	23.2184
6.22	33.721
6.33	35.0515
6.44	18.8677
6.55	21.1515
6.66	25.8021
6.77	12.7754
6.88	9.99878
6.99	12.9592
7.1	20.9009
7.21	16.4477
7.32	20.8013
7.43	21.6421
7.54	32.1273
7.65	79.5142
7.76	87.3369
7.87	32.0207
7.98	2.86096
8.09	16.5366
8.2	10.8697
8.31	9.52039
8.42	1.54748
8.53	18.8224
8.64	4.95862
8.75	1.86939
8.86	54.1517
8.97	341.243
9.08	523.625
9.19	317.023
9.3	109.065
9.41	34.808
9.52	29.0928
9.63	122.761
9.74	196.975
9.85	97.4634
9.96	26.0326
10.07	18.0222
10.18	38.5817
10.29	65.6426
10.4	68.9845
10.51	25.2289
10.62	2.93799
10.73	0.362549
10.84	8.46863
10.95	12.8944
11.06	1.23486
11.17	68.9312
11.28	390.39
11.39	855.277
11.5	680.55
11.61	248.475
11.72	104.139
11.83	161.086
11.94	193.764
12.05	101.893
12.16	29.352
12.27	121.865
12.38	225.986
12.49	234.825
12.6	122.225
12.71	29.4939
12.82	12.0255
12.93	2.67236
13.04	3.52551
13.15	4.17603
13.26	8.87341
13.37	13.3551
13.48	10.3334
13.59	84.8013
13.7	384.512
13.81	628.185
13.92	355.742
14.03	113.356
14.14	151.63
14.25	207.735
14.36	116.396
14.47	29.9865
14.58	5.03046
14.69	2.40894
14.8	9.13129
14.91	141.787
15.02	305.569
15.13	264.194
15.24	73.526
15.35	50.6998
15.46	45.2775
15.57	36.0327
15.68	54.3539
15.79	136.319
15.9	138.444
16.01	41.9292
16.12	1.97736
16.23	14.0655
16.34	164.147
16.45	1120.93
16.56	2395.7
16.67	1591.21
16.78	369.693
16.89	69.7598
17	23.0743
17.11	24.6877
17.22	48.2949
17.33	46.9205
17.44	16.2825
17.55	10.846
17.66	14.0829
17.77	0.957214
17.88	9.73865
17.99	8.56232
18.1	17.7933
18.21	77.3946
18.32	119.667
18.43	87.5452
18.54	102.442
18.65	116.358
18.76	68.2832
18.87	21.363
18.98	8.94928
19.09	14.7794
19.2	28.2588
19.31	20.1494
19.42	61.494
19.53	129.091
19.64	141.683
19.75	56.278
19.86	10.4426
19.97	0.356873
20.08	11.1594
20.19	2.31134
20.3	44.7218
20.41	147.767
20.52	215.69
20.63	134.437
20.74	57.9646
20.85	47.2515
20.96	53.4641
21.07	52.1235
21.18	24.0086
21.29	22.0909
21.4	13.7938
21.51	1.8551
21.62	2.95837
21.73	3.47211
21.84	13.7505
21.95	16.395
22.06	0.361633
22.17	40.2607
22.28	47.3998
22.39	16.3655
22.5	10.371
22.61	152.558
22.72	377.022
22.83	363.176
22.94	472.146
23.05	512.453
23.16	282.853
23.27	67.1249
23.38	9.03149
23.49	0.307007
23.6	41.8416
23.71	221.455
23.82	319.163
23.93	277.581
24.04	191.034
24.15	122.565
24.26	112.847
24.37	83.1451
24.48	42.4315
24.59	10.1295
24.7	3.21118
24.81	19.1314
24.92	121.263
25.03	293.829
25.14	308.376
25.25	317.453
25.36	219.369
25.47	127.517
25.58	42.9673
25.69	129.204
25.8	172.875
25.91	133.384
26.02	49.5552
26.13	11.0086
26.24	7.82513
26.35	18.8135
26.46	18.7943
26.57	32.0627
26.68	89.9262
26.79	98.8923
26.9	47.9296
27.01	4.9884
27.12	17.9514
27.23	3.16058
27.34	9.97199
27.45	7.89807
27.56	5.26642
27.67	67.7083
27.78	246.292
27.89	266.107
28	215.768
28.11	101.373
28.22	42.6924
28.33	22.0284
28.44	26.7176
28.55	21.9471
28.66	23.4678
28.77	10.1707
28.88	6.07477
28.99	3.52466
29.1	6.18695
29.21	21.3279
29.32	50.6454
29.43	35.8169
29.54	23.9926
29.65	49.5741
29.76	98.0629
29.87	64.8222
29.98	35.8418
30.09	13.123
30.2	14.7391
30.31	18.3564
30.42	40.9972
30.53	87.918
30.64	74.3358
30.75	29.748
30.86	7.09192
30.97	2.78235
31.08	57.1052
31.19	104.926
31.3	68.0499
31.41	36.1245
31.52	4.74597
31.63	39.9459
31.74	121.154
31.85	110.217
31.96	117.7
32.07	209.018
32.18	281.109
32.29	190.104
32.4	129.645
32.51	19.0605
32.62	6.42114
32.73	15.5134
32.84	8.40845
32.95	39.277
33.06	5.79651
33.17	6.59515
33.28	17.073
33.39	37.2089
33.5	32.427
33.61	23.6837
33.72	2.70636
33.83	1.63586
33.94	51.1224
34.05	103.026
34.16	62.6762
34.27	57.3374
34.38	27.0725
34.49	9.63922
34.6	0.858582
34.71	5.258
34.82	16.0297
34.93	20.3484
35.04	52.8176
35.15	56.259
35.26	32.3956
35.37	30.3481
35.48	15.1832
35.59	18.9548
35.7	14.5911
35.81	7.03638
35.92	0.517456
36.03	9.16742
36.14	56.5068
36.25	107.616
36.36	58.3128
36.47	83.2051
36.58	70.9497
36.69	47.0759
36.8	32.7495
36.91	36.2321
37.02	41.9744
37.13	58.9993
37.24	96.2169
37.35	66.0109
37.46	31.7631
37.57	32.4614
37.68	0.887085
37.79	13.5405
37.9	22.7305
38.01	2.37854
38.12	7.39734
38.23	12.0211
38.34	10.8307
38.45	34.8602
38.56	59.3471
38.67	65.787
38.78	50.7578
38.89	24.8335
39	0.886658
39.11	6.67554
39.22	6.54706
39.33	21.465
39.44	7.50165
39.55	3.41571
39.66	25.7458
39.77	13.6491
39.88	9.79193
39.99	15.0262
40.1	11.2884
40.21	105.264
40.32	72.0163
40.43	52.0898
40.54	75.0476
40.65	23.0497
40.76	2.70776
40.87	9.26459
40.98	17.983
41.09	22.6853
41.2	33.2903
41.31	15.8934
41.42	41.7357
41.53	37.7831
41.64	33.569
41.75	48.7246
41.86	18.8367
41.97	29.6133
42.08	40.2615
42.19	32.4851
42.3	31.7183
42.41	40.6016
42.52	5.76221
42.63	15.0624
42.74	12.2027
42.85	12.1907
42.96	23.5853
43.07	4.67844
43.18	20.0573
43.29	23.1234
43.4	17.4779
43.51	25.2196
43.62	16.7964
43.73	14.5617
43.84	21.6238
43.95	22.7126
44.06	7.27112
44.17	10.0282
44.28	22.2551
44.39	9.39758
44.5	2.20825
44.61	4.56393
44.72	19.4106
44.83	2.6734
44.94	28.8552
45.05	23.9683
45.16	11.8878
45.27	30.0605
45.38	17.7493
45.49	25.475
45.6	4.66312
45.71	16.8727
45.82	31.88
45.93	0.198364
46.04	2.61127
46.15	35.6092
46.26	2.11508
46.37	27.5679
46.48	19.0099
46.59	24.0594
46.7	42.7025
46.81	22.8371
46.92	31.628
47.03	10.0616
47.14	14.8287
47.25	5.04941
47.36	11.5667
47.47	11.6225
47.58	31.1881
47.69	20.1034
47.8	49.0355
47.91	35.8558
48.02	34.4224
48.13	15.2159
48.24	14.9721
48.35	33.6939
48.46	52.6124
48.57	29.4841
48.68	41.0202
48.79	29.3454
48.9	37.7122
49.01	53.6099
49.12	83.6326
