Measurement: Powder, Xray Data XY Processed
Mineral: Akermanite
Rruff sample: R061085
Ideal chemistry: Ca_2_MgSi_2_O_7_
Locality: Kovdor, Kola Peninsula, Russia
Source: Michael Scott
Description: Dark blue coarsely crystalline massive associated with green diopside
Diffraction sample description: Powder
Measured chemistry: (Ca_1.78_Na_0.22_)_Σ=2_(Mg_0.70_Al_0.22_Fe^2+^_0.08_)_Σ=1_Si_2.00_O_7_
Cell parameters: a: 7.7913(3) b: 7.7913(3) c: 5.0147(1) alpha: 90 beta: 90 gamma: 90 volume: 304.41(2) crystal system: tetragonal
x	intensity
5	0
5.22	4.66447
5.44	12.1795
5.66	13.7337
5.88	5.70623
6.1	8.88695
6.32	17.3559
6.54	13.6688
6.76	10.9205
6.98	2.06782
7.2	3.26451
7.42	2.31445
7.64	6.85896
7.86	0.234039
8.08	0.580826
8.3	3.91462
8.52	9.27745
8.74	13.5402
8.96	2.32111
9.18	5.21697
9.4	1.55565
9.62	3.90404
9.84	8.97341
10.06	8.25022
10.28	9.43026
10.5	3.63558
10.72	11.9811
10.94	7.2221
11.16	9.53951
11.38	7.46305
11.6	0.325586
11.82	8.95903
12.04	6.9978
12.26	8.13727
12.48	9.49577
12.7	18.6713
12.92	1.89373
13.14	8.67269
13.36	6.6088
13.58	2.53322
13.8	9.54689
14.02	4.79988
14.24	3.47431
14.46	9.39615
14.68	11.5343
14.9	1.14953
15.12	2.01978
15.34	10.7265
15.56	0.952702
15.78	9.7701
16	7.57059
16.22	8.52622
16.44	4.139
16.66	9.10832
16.88	9.09214
17.1	10.8757
17.32	4.02329
17.54	8.12428
17.76	20.3052
17.98	7.26587
18.2	1.33975
18.42	10.5466
18.64	14.7874
18.86	5.95249
19.08	4.23
19.3	3.2283
19.52	0.840488
19.74	4.21541
19.96	0.079885
20.18	2.05181
20.4	11.6227
20.62	10.8119
20.84	0.507704
21.06	68.5858
21.28	5.64553
21.5	7.52164
21.72	2.57033
21.94	0.282873
22.16	5.79602
22.38	9.21027
22.6	5.16919
22.82	14.1311
23.04	0.180775
23.26	12.6959
23.48	3.4028
23.7	7.08104
23.92	12.994
24.14	11.8133
24.36	9.65427
24.58	0.445062
24.8	1.10362
25.02	2.051
25.24	3.99724
25.46	4.9516
25.68	12.0783
25.9	1.32183
26.12	5.52264
26.34	9.39663
26.56	2.3265
26.78	2.17687
27	0.898241
27.22	5.53858
27.44	0.665454
27.66	4.21763
27.88	2.98723
28.1	1.54513
28.32	1.1622
28.54	9.70241
28.76	8.26384
28.98	74.1009
29.2	13.8271
29.42	7.74595
29.64	4.46278
29.86	3.7534
30.08	2.85019
30.3	15.5718
30.52	1.34418
30.74	2.19198
30.96	10.7148
31.18	128.655
31.4	71.433
31.62	1.50617
31.84	5.68987
32.06	0.036442
32.28	14.4237
32.5	5.74529
32.72	7.22292
32.94	10.6273
33.16	3.92209
33.38	8.08423
33.6	5.00468
33.82	11.5778
34.04	3.9034
34.26	4.68019
34.48	9.8783
34.7	1.59841
34.92	4.4391
35.14	3.22764
35.36	5.94444
35.58	2.80346
35.8	25.5287
36.02	6.60013
36.24	7.93726
36.46	44.8742
36.68	6.60787
36.9	0.886066
37.12	1.3272
37.34	17.9603
37.56	8.3261
37.78	41.7038
38	12.7959
38.22	3.92344
38.44	7.02932
38.66	11.2114
38.88	6.83049
39.1	24.4652
39.32	6.22495
39.54	18.1326
39.76	4.65728
39.98	8.64971
40.2	6.67508
40.42	6.77986
40.64	3.83382
40.86	11.1906
41.08	10.3091
41.3	5.87043
41.52	2.69759
41.74	7.76497
41.96	0.012854
42.18	3.92902
42.4	4.77388
42.62	3.76118
42.84	7.68348
43.06	11.4576
43.28	3.9039
43.5	15.6256
43.72	1.48365
43.94	5.94259
44.16	2.15133
44.38	9.74106
44.6	47.7083
44.82	23.6873
45.04	1.0689
45.26	3.04211
45.48	5.15179
45.7	10.49
45.92	2.84085
46.14	3.13039
46.36	11.2095
46.58	17.1865
46.8	10.4655
47.02	3.56517
47.24	15.8158
47.46	3.67108
47.68	1.89039
47.9	0.143829
48.12	9.60997
48.34	4.3704
48.56	12.1411
48.78	17.0553
49	2.83359
49.22	2.64756
49.44	7.98355
49.66	13.1894
49.88	4.14867
50.1	5.13274
50.32	1.22859
50.54	14.1577
50.76	10.0399
50.98	2.86945
51.2	6.66419
51.42	8.45717
51.64	15.1176
51.86	14.9004
52.08	32.473
52.3	9.24766
52.52	8.31107
52.74	4.90422
52.96	4.54347
53.18	12.1075
53.4	4.55858
53.62	1.02383
53.84	0.415516
54.06	0.785496
54.28	9.95056
54.5	3.00591
54.72	7.28945
54.94	11.2471
55.16	6.61132
55.38	5.51511
55.6	5.56439
55.82	8.66432
56.04	5.05749
56.26	17.4463
56.48	10.4338
56.7	10.5159
56.92	9.5864
57.14	8.38585
57.36	8.39235
57.58	18.5548
57.8	14.657
58.02	3.48275
58.24	4.36433
58.46	5.96898
58.68	9.8858
58.9	1.87973
59.12	5.83676
59.34	1.19638
59.56	6.0912
59.78	7.53663
60	6.34043
60.22	12.0677
60.44	8.09537
60.66	4.02284
60.88	13.0136
61.1	14.0313
61.32	15.1764
61.54	21.2215
61.76	4.34357
61.98	1.26672
62.2	1.04881
62.42	0.037475
62.64	3.98042
62.86	3.17139
63.08	10.4042
63.3	3.172
63.52	3.06326
63.74	5.46486
63.96	7.58443
64.18	3.51028
64.4	8.29804
64.62	5.44088
64.84	5.45266
65.06	10.0566
65.28	25.7037
65.5	9.45611
65.72	9.32477
65.94	2.1824
66.16	5.57143
66.38	7.17794
66.6	7.92998
66.82	3.85532
67.04	4.44055
67.26	22.3677
67.48	7.72745
67.7	7.09106
67.92	16.179
68.14	3.44283
68.36	2.59276
68.58	7.25636
68.8	0.521069
69.02	12.7093
69.24	2.81744
69.46	5.14381
69.68	8.26364
69.9	8.36928
70.12	4.12486
70.34	4.23832
70.56	5.20315
70.78	3.68127
71	9.50958
71.22	1.77475
71.44	4.89178
71.66	4.02168
71.88	0.007032
72.1	6.06318
72.32	4.3284
72.54	4.48388
72.76	13.6941
72.98	3.6857
73.2	10.4179
73.42	2.22275
73.64	11.0642
73.86	4.20369
74.08	8.22569
74.3	7.20114
74.52	0.076515
74.74	8.71724
74.96	9.3434
75.18	5.24633
75.4	1.28585
75.62	7.14786
75.84	23.066
76.06	19.9392
76.28	4.83434
76.5	2.0594
76.72	15.1297
76.94	4.32138
77.16	2.62466
77.38	4.0324
77.6	9.63693
77.82	5.55697
78.04	10.7672
78.26	3.92557
78.48	3.99335
78.7	6.88414
78.92	2.67142
79.14	8.55304
79.36	8.38261
79.58	4.18043
79.8	5.91142
80.02	6.36535
80.24	8.95704
80.46	1.7982
80.68	13.7678
80.9	4.75392
81.12	8.78664
81.34	4.94885
81.56	11.1601
81.78	7.27027
82	4.35765
82.22	6.34405
82.44	2.30766
82.66	1.31709
82.88	4.26851
83.1	7.12655
83.32	6.26605
83.54	5.16078
83.76	11.0971
83.98	4.75512
84.2	3.45741
84.42	8.3442
84.64	2.51934
84.86	11.3583
85.08	16.298
85.3	0.513328
85.52	10.9099
85.74	1.64483
85.96	12.8483
86.18	5.70624
86.4	2.9319
86.62	1.07516
86.84	7.81007
87.06	4.09078
87.28	12.1009
87.5	5.00538
87.72	6.91924
87.94	5.81801
88.16	2.93324
88.38	9.01336
88.6	8.30626
88.82	9.67212
89.04	6.09262
89.26	1.28689
89.48	8.97592
89.7	7.6609
89.92	9.10949
