Measurement: Powder, Xray Data XY Processed
Mineral: Akermanite
Rruff sample: R061100
Ideal chemistry: Ca_2_MgSi_2_O_7_
Locality: Lago de Vico, Viterbo, Italy
Source: Michael Scott
Description: Colorless to white short prismatic crystals
Diffraction sample description: Powder
Measured chemistry: (Ca_1.80_Na_0.20_)_Σ=2_(Mg_0.58_Al_0.38_Fe_0.04_)_Σ=1_(Si_1.82_Al_0.18_)_Σ=2_O_7_
Cell parameters: a: 7.7684(2) b: 7.7684(2) c: 5.0220(2) alpha: 90 beta: 90 gamma: 90 volume: 303.06(1) crystal system: tetragonal
x	intensity
5	0
5.22	9.41389
5.44	10.9397
5.66	10.7928
5.88	12.381
6.1	11.0896
6.32	8.05967
6.54	6.04946
6.76	11.3148
6.98	6.487
7.2	0.954987
7.42	9.76644
7.64	10.0438
7.86	3.66853
8.08	1.23167
8.3	9.88938
8.52	1.32143
8.74	8.09803
8.96	2.65995
9.18	14.1198
9.4	4.45384
9.62	9.66521
9.84	1.60768
10.06	7.53635
10.28	3.60168
10.5	2.58428
10.72	7.54552
10.94	13.4003
11.16	6.31401
11.38	7.33871
11.6	7.18802
11.82	12.3792
12.04	4.25881
12.26	1.62891
12.48	11.0046
12.7	2.24698
12.92	8.42167
13.14	2.64834
13.36	0.189115
13.58	5.99384
13.8	8.2411
14.02	8.60153
14.24	9.59884
14.46	15.9247
14.68	3.92385
14.9	1.83568
15.12	1.19346
15.34	13.9281
15.56	2.01616
15.78	6.01511
16	6.80701
16.22	24.647
16.44	3.65643
16.66	2.50377
16.88	8.10487
17.1	3.02967
17.32	0.330071
17.54	7.58748
17.76	22.3672
17.98	1.85123
18.2	14.1617
18.42	2.36918
18.64	0.845829
18.86	6.18132
19.08	13.1024
19.3	5.93106
19.52	7.04148
19.74	9.93292
19.96	3.57227
20.18	8.47152
20.4	3.60098
20.62	15.4216
20.84	12.5555
21.06	113.705
21.28	16.8893
21.5	4.12532
21.72	14.0704
21.94	13.0188
22.16	4.87828
22.38	10.8392
22.6	1.10884
22.82	8.67963
23.04	11.5564
23.26	4.29711
23.48	5.26398
23.7	12.3063
23.92	25.3776
24.14	48.6053
24.36	6.52228
24.58	15.4894
24.8	5.56935
25.02	7.739
25.24	8.87715
25.46	8.0467
25.68	36.0915
25.9	4.1839
26.12	14.3384
26.34	2.14821
26.56	7.03859
26.78	3.01234
27	2.03742
27.22	4.67897
27.44	5.84306
27.66	11.4274
27.88	5.25739
28.1	14.0335
28.32	18.5149
28.54	2.77406
28.76	3.07401
28.98	35.5785
29.2	66.1032
29.42	4.70916
29.64	4.33979
29.86	8.57259
30.08	14.1125
30.3	4.5529
30.52	0.023576
30.74	4.59069
30.96	14.5158
31.18	91.7837
31.4	670.794
31.62	25.7323
31.84	13.9359
32.06	7.63703
32.28	7.23267
32.5	8.87206
32.72	14.8544
32.94	6.1701
33.16	10.7919
33.38	6.19641
33.6	9.4697
33.82	1.02385
34.04	13.534
34.26	1.22017
34.48	12.3572
34.7	7.97209
34.92	2.75651
35.14	9.35636
35.36	3.2901
35.58	8.75937
35.8	32.2428
36.02	5.65414
36.24	5.96007
36.46	16.5294
36.68	54.3383
36.9	2.99741
37.12	2.64848
37.34	57.0909
37.56	41.4574
37.78	68.6836
38	9.02786
38.22	8.35512
38.44	1.72796
38.66	3.74396
38.88	9.70023
39.1	54.0279
39.32	14.9192
39.54	45.4048
39.76	4.47378
39.98	4.44694
40.2	10.1035
40.42	0.687218
40.64	3.43088
40.86	8.67764
41.08	13.779
41.3	10.9765
41.52	7.06961
41.74	6.45416
41.96	8.24065
42.18	3.00792
42.4	1.87178
42.62	3.59099
42.84	15.5363
43.06	8.41837
43.28	8.18378
43.5	0.053019
43.72	3.83463
43.94	6.07369
44.16	7.16192
44.38	18.2882
44.6	81.5329
44.82	5.56716
45.04	2.27501
45.26	4.19914
45.48	0.813784
45.7	7.17685
45.92	12.2065
46.14	4.90296
46.36	7.8322
46.58	10.1581
46.8	45.4364
47.02	3.24909
47.24	6.21401
47.46	2.04942
47.68	9.34146
47.9	7.20812
48.12	9.00921
48.34	27.8294
48.56	6.41092
48.78	2.24587
49	9.69757
49.22	19.4085
49.44	3.31012
49.66	14.5236
49.88	21.7904
50.1	4.74433
50.32	8.32834
50.54	17.3625
50.76	0.252599
50.98	6.16456
51.2	7.06643
51.42	7.0849
51.64	14.4566
51.86	60.6286
52.08	258.538
52.3	19.1837
52.52	18.317
52.74	18.8649
52.96	10.3733
53.18	12.7513
53.4	15.2555
53.62	7.72823
53.84	9.13445
54.06	0.017396
54.28	2.34804
54.5	6.4602
54.72	3.77413
54.94	19.016
55.16	0.509353
55.38	12.451
55.6	1.34306
55.82	4.5225
56.04	15.5748
56.26	15.6037
56.48	8.06785
56.7	7.93078
56.92	4.25745
57.14	2.5738
57.36	5.81698
57.58	24.0577
57.8	18.2887
58.02	10.7071
58.24	4.78259
58.46	0.868885
58.68	3.94406
58.9	12.0559
59.12	8.98464
59.34	9.65533
59.56	7.43193
59.78	7.17522
60	11.0039
60.22	15.7137
60.44	10.1869
60.66	2.99386
60.88	7.83743
61.1	2.09714
61.32	21.3666
61.54	33.3293
61.76	13.2349
61.98	1.23594
62.2	2.43595
62.42	2.34821
62.64	9.29444
62.86	0.234744
63.08	4.6873
63.3	4.64445
63.52	2.18929
63.74	8.6144
63.96	16.5814
64.18	13.5019
64.4	0.864373
64.62	5.15926
64.84	5.08699
65.06	9.54099
65.28	45.4603
65.5	22.0082
65.72	4.8765
65.94	4.30131
66.16	1.74604
66.38	8.68044
66.6	11.674
66.82	10.7254
67.04	8.44736
67.26	3.42006
67.48	46.2683
67.7	50.4058
67.92	16.5653
68.14	9.75909
68.36	13.7027
68.58	5.49899
68.8	6.91321
69.02	3.30589
69.24	2.81277
69.46	6.32273
69.68	0.645687
69.9	12.629
70.12	5.81599
70.34	0.102014
70.56	1.74359
70.78	1.12121
71	16.3927
71.22	16.3941
71.44	11.1981
71.66	9.08144
71.88	2.80752
72.1	9.72278
72.32	5.66134
72.54	5.83086
72.76	7.78772
72.98	12.5555
73.2	11.2433
73.42	6.94393
73.64	9.78232
73.86	1.73347
74.08	4.49514
74.3	9.90702
74.52	13.9763
74.74	7.84954
74.96	8.41967
75.18	6.2689
75.4	3.48011
75.62	5.802
75.84	16.6199
76.06	36.4453
76.28	18.3794
76.5	4.40767
76.72	9.07883
76.94	10.929
77.16	16.1269
77.38	6.47009
77.6	12.1084
77.82	0.112194
78.04	8.10823
78.26	4.43867
78.48	3.62767
78.7	0.211808
78.92	10.9308
79.14	0.056043
79.36	1.95972
79.58	8.83389
79.8	10.6413
80.02	4.23483
80.24	7.22454
80.46	9.0129
80.68	10.8432
80.9	3.93452
81.12	1.04693
81.34	8.77653
81.56	3.08333
81.78	20.2418
82	9.9771
82.22	4.1344
82.44	8.48708
82.66	3.56995
82.88	8.79726
83.1	3.95085
83.32	2.72104
83.54	0.691408
83.76	13.4165
83.98	4.99721
84.2	10.5555
84.42	2.48797
84.64	0.440811
84.86	10.6691
85.08	7.03249
85.3	3.41687
85.52	0.157638
85.74	2.36064
85.96	18.1789
86.18	14.1303
86.4	14.3473
86.62	14.8596
86.84	2.9943
87.06	17.3648
87.28	3.85886
87.5	7.37017
87.72	8.98679
87.94	0.622814
88.16	7.66076
88.38	3.02171
88.6	12.3248
88.82	12.8099
89.04	9.90783
89.26	4.17312
89.48	12.3203
89.7	22.4774
89.92	12.0878
