Measurement: Powder, Xray Data XY Processed
Mineral: Alabandite
Rruff sample: R070174
Ideal chemistry: Mn^2+^S^2-^
Locality: Mina Preciosa, Sangue de Cristo, Puebla, Mexico
Source: Michael Scott
Description: Dull dark gray semi-metallic coarse crystals associated with pyrite and calcite
Diffraction sample description: Powder
Measured chemistry: Mn^2+^_1.00_S_1.00_
Cell parameters: a: 5.2235(1) b: 5.2235(1) c: 5.2235(1) alpha: 90 beta: 90 gamma: 90 volume: 142.53(1) crystal system: cubic
x	intensity
5	0
5.22	27.7278
5.44	10.4652
5.66	31.4181
5.88	14.4316
6.1	9.48301
6.32	4.28797
6.54	5.57097
6.76	19.6746
6.98	20.8737
7.2	39.8302
7.42	30.2219
7.64	27.6342
7.86	42.6675
8.08	35.9477
8.3	15.6792
8.52	7.90498
8.74	2.37536
8.96	4.64965
9.18	2.82058
9.4	1.38112
9.62	10.3161
9.84	22.9886
10.06	19.0045
10.28	29.7368
10.5	20.6287
10.72	15.5186
10.94	25.5599
11.16	26.9916
11.38	7.79756
11.6	16.7212
11.82	8.01159
12.04	24.2748
12.26	2.50495
12.48	3.30132
12.7	24.966
12.92	0.073883
13.14	15.9329
13.36	19.9118
13.58	7.62795
13.8	16.4757
14.02	7.15356
14.24	10.1857
14.46	8.79195
14.68	1.05501
14.9	7.05058
15.12	8.72911
15.34	5.32997
15.56	5.2653
15.78	6.64771
16	11.403
16.22	7.46738
16.44	12.936
16.66	13.2677
16.88	4.81487
17.1	12.762
17.32	3.33922
17.54	4.57686
17.76	15.4063
17.98	19.3751
18.2	6.37265
18.42	22.8462
18.64	14.4875
18.86	14.5752
19.08	5.54822
19.3	13.3044
19.52	10.668
19.74	4.26802
19.96	21.3425
20.18	11.2177
20.4	7.93581
20.62	2.36604
20.84	14.1377
21.06	11.2779
21.28	14.3109
21.5	13.3692
21.72	32.5613
21.94	4.08559
22.16	10.914
22.38	16.2781
22.6	26.1001
22.82	14.255
23.04	19.1215
23.26	11.5304
23.48	15.1052
23.7	21.0577
23.92	24.0659
24.14	15.1616
24.36	5.11169
24.58	14.042
24.8	14.3031
25.02	32.1334
25.24	6.01286
25.46	7.39214
25.68	12.8303
25.9	26.6314
26.12	9.72918
26.34	2.18932
26.56	17.0243
26.78	21.5844
27	10.4292
27.22	19.2901
27.44	3.27566
27.66	0.134743
27.88	19.1473
28.1	18.7935
28.32	13.7741
28.54	8.88006
28.76	18.9058
28.98	0.983025
29.2	20.9736
29.42	16.958
29.64	62.5904
29.86	31.3879
30.08	5.35521
30.3	23.5462
30.52	3.62227
30.74	24.5428
30.96	41.8224
31.18	6.41742
31.4	11.7303
31.62	30.0846
31.84	21.4896
32.06	24
32.28	9.46775
32.5	5.53465
32.72	24.6017
32.94	15.5273
33.16	1.52195
33.38	4.22583
33.6	12.9414
33.82	15.5694
34.04	48.953
34.26	297.028
34.48	349.895
34.7	16.5578
34.92	11.8162
35.14	21.348
35.36	26.8531
35.58	6.06424
35.8	19.7677
36.02	11.6893
36.24	18.8699
36.46	23.5831
36.68	24.9581
36.9	5.26498
37.12	10.8916
37.34	24.3822
37.56	22.2985
37.78	8.55875
38	19.0679
38.22	17.2013
38.44	30.004
38.66	20.1386
38.88	23.5485
39.1	20.0685
39.32	3.99229
39.54	21.6824
39.76	22.4411
39.98	14.349
40.2	23.9304
40.42	35.8975
40.64	21.0419
40.86	18.0174
41.08	18.089
41.3	0.082718
41.52	15.1128
41.74	0.139374
41.96	14.3074
42.18	31.4903
42.4	26.5913
42.62	13.0205
42.84	19.6267
43.06	18.0954
43.28	15.0237
43.5	25.5191
43.72	6.71584
43.94	11.7782
44.16	2.28082
44.38	40.6321
44.6	20.123
44.82	14.0043
45.04	7.75192
45.26	3.65398
45.48	13.4934
45.7	28.9379
45.92	10.298
46.14	7.21635
46.36	12.284
46.58	22.1761
46.8	0.681236
47.02	31.5823
47.24	1.49479
47.46	3.05019
47.68	8.35188
47.9	30.7074
48.12	22.9305
48.34	14.1874
48.56	4.98232
48.78	27.0325
49	21.2101
49.22	96.6008
49.44	215.795
49.66	20.2871
49.88	12.1979
50.1	32.2319
50.32	11.3675
50.54	25.9612
50.76	9.64435
50.98	11.3362
51.2	13.6174
51.42	14.7912
51.64	20.2093
51.86	10.7405
52.08	13.4933
52.3	19.173
52.52	23.6956
52.74	12.7608
52.96	20.6147
53.18	0.713661
53.4	0.554344
53.62	23.9795
53.84	27.4985
54.06	22.0317
54.28	15.7658
54.5	20.3427
54.72	8.58366
54.94	21.4954
55.16	23.7
55.38	10.4839
55.6	7.51006
55.82	14.0189
56.04	20.7256
56.26	7.70799
56.48	36.6709
56.7	0.876678
56.92	23.8949
57.14	6.63327
57.36	20.3014
57.58	27.168
57.8	17.9891
58.02	2.97705
58.24	12.908
58.46	14.7225
58.68	25.9619
58.9	12.6831
59.12	0.325493
59.34	2.59942
59.56	10.8534
59.78	16.9064
60	13.6789
60.22	14.9355
60.44	10.413
60.66	35.1441
60.88	17.6767
61.1	27.8499
61.32	26.671
61.54	50.3841
61.76	29.5993
61.98	6.83621
62.2	6.63541
62.42	35.5648
62.64	22.9524
62.86	25.5508
63.08	6.27779
63.3	9.17059
63.52	0.587746
63.74	26.127
63.96	14.2359
64.18	25.4298
64.4	23.1634
64.62	22.3168
64.84	26.393
65.06	21.5082
65.28	30.0106
65.5	21.495
65.72	10.543
65.94	6.40459
66.16	19.2511
66.38	8.64799
66.6	4.50506
66.82	25.7006
67.04	6.86296
67.26	12.6062
67.48	16.6361
67.7	25.1786
67.92	16.9263
68.14	8.78415
68.36	10.689
68.58	10.5543
68.8	18.7227
69.02	14.3038
69.24	23.6634
69.46	13.486
69.68	16.5195
69.9	20.2722
70.12	16.1961
70.34	29.1589
70.56	4.11614
70.78	8.8886
71	2.21272
71.22	26.566
71.44	14.705
71.66	5.81063
71.88	3.63279
72.1	8.0998
72.32	63.6281
72.54	40.4341
72.76	17.3847
72.98	38.8305
73.2	30.563
73.42	10.0936
73.64	15.5965
73.86	8.18187
74.08	0.162086
74.3	12.2833
74.52	28.9319
74.74	13.9463
74.96	15.8439
75.18	44.8195
75.4	0.57193
75.62	23.4474
75.84	9.23762
76.06	20.5232
76.28	13.1532
76.5	13.6888
76.72	27.2871
76.94	18.2561
77.16	22.7782
77.38	25.2053
77.6	4.63602
77.82	20.5394
78.04	6.43797
78.26	22.3312
78.48	4.80159
78.7	26.9145
78.92	23.4841
79.14	18.5834
79.36	25.2025
79.58	17.4534
79.8	35.037
80.02	26.4795
80.24	26.885
80.46	11.3608
80.68	16.4528
80.9	18.0789
81.12	7.45843
81.34	8.50925
81.56	16.8561
81.78	27.1145
82	18.854
82.22	13.8156
82.44	42.045
82.66	81.6725
82.88	49.1217
83.1	21.5973
83.32	14.5119
83.54	8.79904
83.76	2.33052
83.98	26.853
84.2	27.4827
84.42	11.8287
84.64	25.628
84.86	20.0259
85.08	10.8167
85.3	2.62664
85.52	27.5898
85.74	33.8812
85.96	20.9669
86.18	11.0292
86.4	38.3649
86.62	3.38531
86.84	15.8578
87.06	31.837
87.28	14.9189
87.5	19.3374
87.72	12.6904
87.94	10.6174
88.16	13.0027
88.38	29.1826
88.6	13.9754
88.82	23.9344
89.04	15.3671
89.26	13.3817
89.48	8.9765
89.7	22.8289
89.92	24.3484
