Measurement: Powder, Xray Data XY Processed
Mineral: Albite
Rruff sample: R050402
Ideal chemistry: NaAlSi_3_O_8_
Locality: Urbano mine, Golconda District, Brazil
Source: Bob Downs
Description: Colorless tabular single crystals associated with fluorapatite R050401
Diffraction sample description: Powder
Measured chemistry: Na_1.00_Al_1.00_Si_3.00_O_8_
Cell parameters: a: 8.1409(5) b: 12.789(1) c: 7.1598(3) alpha: 94.265(6) beta: 116.589(4) gamma: 87.679(6) volume: 664.74(6) crystal system: triclinic
x	intensity
5	0
5.22	7.40293
5.44	11.1045
5.66	19.5346
5.88	8.19183
6.1	15.545
6.32	6.29998
6.54	15.4416
6.76	6.2097
6.98	1.95646
7.2	6.9324
7.42	0.039622
7.64	0.167278
7.86	5.62916
8.08	6.3422
8.3	7.7719
8.52	9.53602
8.74	7.62918
8.96	3.89037
9.18	7.16331
9.4	4.80026
9.62	7.09537
9.84	12.9427
10.06	8.05097
10.28	12.1954
10.5	4.11164
10.72	12.1088
10.94	14.0553
11.16	7.39992
11.38	1.64324
11.6	7.3497
11.82	3.9431
12.04	7.23022
12.26	1.27023
12.48	12.3778
12.7	7.14341
12.92	7.7796
13.14	9.6655
13.36	5.52101
13.58	7.24678
13.8	19.112
14.02	23.0286
14.24	8.05972
14.46	5.70283
14.68	1.12288
14.9	1.80629
15.12	12.2611
15.34	8.68322
15.56	4.02215
15.78	9.12206
16	4.23719
16.22	0.776172
16.44	4.89184
16.66	8.08272
16.88	3.29781
17.1	2.04233
17.32	8.90433
17.54	1.61565
17.76	0.821946
17.98	7.18667
18.2	15.1768
18.42	5.02968
18.64	8.76086
18.86	5.01604
19.08	12.0836
19.3	5.06296
19.52	7.28027
19.74	3.75401
19.96	10.1058
20.18	8.02654
20.4	9.73376
20.62	7.5204
20.84	7.16743
21.06	10.5698
21.28	20.0333
21.5	7.2966
21.72	0.952498
21.94	37.9246
22.16	130.713
22.38	3.71702
22.6	5.99744
22.82	3.60452
23.04	24.5929
23.26	15.0142
23.48	28.6903
23.7	20.0249
23.92	0.847124
24.14	71.2075
24.36	211.338
24.58	7.57184
24.8	8.17237
25.02	24.0834
25.24	24.7249
25.46	59.2326
25.68	10.0991
25.9	15.6992
26.12	2.68813
26.34	12.6529
26.56	26.528
26.78	7.36518
27	8.0749
27.22	11.5119
27.44	17.6849
27.66	44.1922
27.88	271.526
28.1	211.935
28.32	124.185
28.54	2.83508
28.76	7.10978
28.98	4.66817
29.2	13.4858
29.42	0.6987
29.64	0.881001
29.86	11.3333
30.08	24.2728
30.3	47.7743
30.52	116.994
30.74	9.70326
30.96	8.2175
31.18	39.4382
31.4	10.0522
31.62	9.90539
31.84	1.33163
32.06	24.1451
32.28	9.85164
32.5	4.62101
32.72	6.22209
32.94	4.42432
33.16	19.7182
33.38	5.38815
33.6	6.20985
33.82	7.21083
34.04	28.8489
34.26	16.5796
34.48	3.85495
34.7	10.2746
34.92	5.91028
35.14	29.8756
35.36	15.7529
35.58	1.3656
35.8	2.90728
36.02	10.3466
36.24	1.79172
36.46	7.17677
36.68	1.82919
36.9	41.1458
37.12	3.6278
37.34	20.3584
37.56	15.4932
37.78	29.7264
38	4.08193
38.22	2.91637
38.44	3.21019
38.66	13.5605
38.88	30.7747
39.1	6.95729
39.32	3.88997
39.54	9.5985
39.76	5.51357
39.98	8.62539
40.2	9.52242
40.42	10.3734
40.64	6.87188
40.86	0.161568
41.08	6.77405
41.3	22.6015
41.52	8.43483
41.74	5.26846
41.96	1.66668
42.18	5.16291
42.4	15.8059
42.62	27.7987
42.84	15.6596
43.06	1.56058
43.28	11.7733
43.5	11.4779
43.72	14.9561
43.94	5.85878
44.16	4.74907
44.38	10.1212
44.6	1.10886
44.82	3.08609
45.04	3.91164
45.26	11.9388
45.48	18.527
45.7	3.30813
45.92	5.44879
46.14	4.02366
46.36	5.99375
46.58	2.41845
46.8	12.7268
47.02	14.7574
47.24	17.7624
47.46	3.65005
47.68	6.98577
47.9	14.6731
48.12	41.2298
48.34	30.6741
48.56	4.0684
48.78	4.37645
49	9.6809
49.22	29.765
49.44	7.13699
49.66	35.6921
49.88	34.3431
50.1	57.6593
50.32	6.29694
50.54	15.7683
50.76	27.4524
50.98	0.157077
51.2	43.2765
51.42	4.16316
51.64	4.71654
51.86	0.272375
52.08	12.1789
52.3	17.4736
52.52	28.0978
52.74	6.32257
52.96	5.38851
53.18	24.3487
53.4	24.6557
53.62	4.1764
53.84	0.558897
54.06	0.501048
54.28	4.82983
54.5	5.22729
54.72	4.80919
54.94	12.0968
55.16	11.4799
55.38	7.63346
55.6	4.12266
55.82	1.44335
56.04	1.34645
56.26	8.33749
56.48	7.20724
56.7	2.73643
56.92	4.57679
57.14	0.935486
57.36	0.410181
57.58	11.2356
57.8	12.888
58.02	4.3251
58.24	11.9245
58.46	8.73944
58.68	25.8775
58.9	3.61256
59.12	9.76361
59.34	8.71974
59.56	4.07855
59.78	3.49327
60	0.777781
60.22	7.39251
60.44	10.5414
60.66	8.67248
60.88	9.76653
61.1	0.287653
61.32	8.18399
61.54	10.1168
61.76	18.9051
61.98	9.89668
62.2	6.60629
62.42	0.166263
62.64	6.52318
62.86	13.2012
63.08	4.91261
63.3	11.6587
63.52	18.1829
63.74	23.9818
63.96	8.65783
64.18	4.80772
64.4	2.34432
64.62	7.16531
64.84	17.184
65.06	8.26799
65.28	15.3989
65.5	5.69944
65.72	19.6114
65.94	9.72755
66.16	13.0326
66.38	7.31808
66.6	6.28622
66.82	5.49956
67.04	3.5781
67.26	8.80236
67.48	9.4549
67.7	13.4412
67.92	16.1201
68.14	13.4004
68.36	8.26503
68.58	1.15907
68.8	1.04868
69.02	1.96071
69.24	10.3751
69.46	9.77118
69.68	25.6968
69.9	11.2999
70.12	9.48631
70.34	2.77426
70.56	0.094608
70.78	3.29363
71	8.66638
71.22	11.9702
71.44	11.2359
71.66	6.17813
71.88	6.64433
72.1	3.95951
72.32	5.19132
72.54	6.24819
72.76	2.08219
72.98	10.0253
73.2	3.66812
73.42	1.65553
73.64	4.05688
73.86	8.81877
74.08	3.56041
74.3	8.89133
74.52	7.73425
74.74	5.41324
74.96	2.84191
75.18	6.01869
75.4	8.54939
75.62	3.87726
75.84	14.0436
76.06	1.64898
76.28	1.50998
76.5	3.48052
76.72	5.31946
76.94	1.25663
77.16	4.20277
77.38	4.81406
77.6	7.45269
77.82	17.189
78.04	6.10955
78.26	16.3985
78.48	0.565168
78.7	6.61672
78.92	4.827
79.14	5.10937
79.36	7.4046
79.58	12.7178
79.8	10.4902
80.02	7.80837
80.24	3.24077
80.46	2.24494
80.68	5.17587
80.9	3.11636
81.12	1.96638
81.34	3.84074
81.56	3.66711
81.78	14.3953
82	10.0852
82.22	7.60609
82.44	5.45529
82.66	7.50741
82.88	7.29042
83.1	6.33549
83.32	3.68976
83.54	5.98713
83.76	4.0478
83.98	4.22366
84.2	0.30003
84.42	3.29045
84.64	7.30238
84.86	6.2987
85.08	10.054
85.3	5.09913
85.52	5.12139
85.74	7.38647
85.96	4.36161
86.18	7.51754
86.4	7.8231
86.62	3.02087
86.84	0.69657
87.06	3.49438
87.28	14.8274
87.5	6.92879
87.72	1.10033
87.94	3.30171
88.16	4.03627
88.38	5.12158
88.6	5.24652
88.82	1.14139
89.04	2.75991
89.26	3.22653
89.48	7.49433
89.7	1.19131
89.92	4.20144
