Measurement: Powder, Xray Data XY Processed
Mineral: Allactite
Rruff sample: R070175
Ideal chemistry: Mn^2+^_7_(As^5+^O_4_)_2_(OH)_8_
Locality: Langban, Filipstad, Varmland, Sweden
Source: Michael Scott
Description: Brownish red vitreous massive
Diffraction sample description: Powder
Measured chemistry: (Mn_6.85_Mg_0.10_Ca_0.05_)_Σ=7_(As_1.00_O_4_)_2_(OH)_8_ ;to (Mn_6.75_Mg_0.19_Ca_0.16_)_Σ=7_(As_1.00_O_4_)_2_(OH)_8_
Cell parameters: a: 11.0319(7) b: 12.2656(5) c: 5.5155(3) alpha: 90 beta: 114.229(6) gamma: 90 volume: 680.57(5) crystal system: monoclinic
x	intensity
5	0
5.22	3.28719
5.44	11.6324
5.66	6.49976
5.88	18.6846
6.1	10.9391
6.32	5.83459
6.54	30.959
6.76	25.0981
6.98	9.39191
7.2	2.07004
7.42	19.914
7.64	13.8549
7.86	18.9652
8.08	34.9252
8.3	15.1309
8.52	16.7909
8.74	23.6425
8.96	19.5152
9.18	9.28988
9.4	5.37082
9.62	10.0262
9.84	36.4579
10.06	12.6376
10.28	34.8175
10.5	16.9273
10.72	0.863686
10.94	10.8452
11.16	9.00523
11.38	39.8052
11.6	14.9355
11.82	13.4219
12.04	21.5477
12.26	28.2696
12.48	12.0852
12.7	12.4299
12.92	42.3623
13.14	36.5822
13.36	42.8841
13.58	37.531
13.8	2.06394
14.02	29.2845
14.24	45.6019
14.46	34.5329
14.68	10.6998
14.9	36.869
15.12	13.607
15.34	4.94339
15.56	25.4997
15.78	46.0005
16	32.6253
16.22	27.2374
16.44	22.6521
16.66	12.0445
16.88	10.5167
17.1	1.80295
17.32	16.6442
17.54	12.6324
17.76	67.085
17.98	22.0099
18.2	13.1239
18.42	29.3337
18.64	23.2627
18.86	23.1401
19.08	112.885
19.3	1.63757
19.52	16.2715
19.74	2.68665
19.96	7.66801
20.18	3.08777
20.4	21.5193
20.62	26.6801
20.84	15.7429
21.06	22.0316
21.28	39.4376
21.5	16.6156
21.72	43.9691
21.94	19.4933
22.16	10.1351
22.38	25.6463
22.6	25.0266
22.82	9.4443
23.04	9.18262
23.26	0.884369
23.48	36.2412
23.7	35.5537
23.92	138.088
24.14	67.4124
24.36	13.4358
24.58	17.7947
24.8	25.014
25.02	3.02408
25.24	4.73898
25.46	6.27506
25.68	8.66075
25.9	18.0252
26.12	31.6835
26.34	24.1483
26.56	3.68292
26.78	0.945198
27	43.0242
27.22	28.3928
27.44	13.3322
27.66	73.2363
27.88	2.75037
28.1	24.6679
28.32	14.4128
28.54	7.6655
28.76	15.185
28.98	18.7816
29.2	188.921
29.42	21.5656
29.64	3.0443
29.86	22.1523
30.08	29.8184
30.3	49.508
30.52	120.762
30.74	18.6119
30.96	24.3055
31.18	33.0866
31.4	31.714
31.62	7.22707
31.84	9.5078
32.06	0.756325
32.28	2.67318
32.5	20.1862
32.72	33.3571
32.94	26.504
33.16	28.1516
33.38	60.6685
33.6	55.4635
33.82	63.9565
34.04	22.3791
34.26	50.595
34.48	15.7286
34.7	29.7133
34.92	16.5856
35.14	17.4657
35.36	2.03803
35.58	32.9494
35.8	64.1746
36.02	5.31257
36.24	18.5909
36.46	18.1365
36.68	0.152824
36.9	5.68053
37.12	28.4329
37.34	39.9286
37.56	30.8844
37.78	70.4671
38	3.06064
38.22	23.2921
38.44	25.5349
38.66	25.8123
38.88	96.3731
39.1	0.963463
39.32	23.7001
39.54	26.6486
39.76	16.4819
39.98	26.4309
40.2	19.2836
40.42	10.93
40.64	16.7965
40.86	23.0874
41.08	50.9437
41.3	20.4946
41.52	5.22316
41.74	36.923
41.96	23.2838
42.18	20.665
42.4	21.8899
42.62	2.44595
42.84	19.8206
43.06	11.0513
43.28	12.2151
43.5	14.9072
43.72	21.7406
43.94	38.7653
44.16	23.6717
44.38	40.0688
44.6	25.0412
44.82	6.30884
45.04	3.55009
45.26	28.9786
45.48	34.6688
45.7	39.3521
45.92	4.32369
46.14	0.651207
46.36	32.9639
46.58	26.611
46.8	17.6445
47.02	9.02988
47.24	11.5437
47.46	5.58632
47.68	12.671
47.9	10.8247
48.12	15.5757
48.34	0.299873
48.56	31.6764
48.78	26.9873
49	27.2144
49.22	3.42094
49.44	37.223
49.66	12.8012
49.88	3.57636
50.1	7.69179
50.32	16.7856
50.54	20.0672
50.76	21.6767
50.98	62.5197
51.2	21.2007
51.42	19.9279
51.64	38.8337
51.86	40.7837
52.08	40.2375
52.3	24.1831
52.52	16.8742
52.74	10.4721
52.96	35.9604
53.18	64.3157
53.4	18.5372
53.62	5.52473
53.84	19.2843
54.06	4.47761
54.28	26.7267
54.5	25.2867
54.72	36.8974
54.94	49.7734
55.16	19.2736
55.38	2.44109
55.6	45.1722
55.82	24.5194
56.04	34.3873
56.26	24.5184
56.48	16.692
56.7	12.3659
56.92	2.64925
57.14	8.67606
57.36	7.72516
57.58	12.7414
57.8	0.738754
58.02	21.2627
58.24	31.9744
58.46	30.3216
58.68	44.898
58.9	30.1654
59.12	8.58408
59.34	12.964
59.56	27.7033
59.78	9.02398
60	12.1844
60.22	15.5004
60.44	27.574
60.66	19.5683
60.88	12.5791
61.1	12.3052
61.32	7.12553
61.54	27.9182
61.76	45.7567
61.98	6.77449
62.2	12.9222
62.42	23.4372
62.64	28.9962
62.86	7.95322
63.08	2.2393
63.3	18.7574
63.52	2.2396
63.74	27.5499
63.96	22.3655
64.18	6.03485
64.4	0.417091
64.62	24.9634
64.84	14.8838
65.06	15.7327
65.28	1.68059
65.5	11.3553
65.72	3.77106
65.94	33.9075
66.16	5.87259
66.38	8.90134
66.6	23.3994
66.82	33.1166
67.04	5.81126
67.26	11.7563
67.48	0.979576
67.7	28.1171
67.92	11.5039
68.14	0.605209
68.36	18.568
68.58	15.3737
68.8	4.21132
69.02	0.845825
69.24	8.80106
69.46	16.8287
69.68	20.071
69.9	24.4468
70.12	4.5833
70.34	19.4653
70.56	29.5527
70.78	31.1214
71	6.04069
71.22	10.0219
71.44	19.7026
71.66	33.1198
71.88	1.17066
72.1	16.4736
72.32	23.4657
72.54	20.5398
72.76	18.7263
72.98	19.855
73.2	20.4638
73.42	29.0185
73.64	8.79357
73.86	15.4933
74.08	11.5121
74.3	34.6013
74.52	6.44588
74.74	4.3268
74.96	37.2806
75.18	34.3926
75.4	18.218
75.62	25.2167
75.84	26.0647
76.06	20.3373
76.28	12.5457
76.5	5.47257
76.72	39.9158
76.94	22.2441
77.16	43.4403
77.38	0.499367
77.6	32.1923
77.82	15.1111
78.04	14.6824
78.26	37.4709
78.48	19.6821
78.7	18.6403
78.92	32.1861
79.14	5.32772
79.36	30.1688
79.58	20.3492
79.8	27.2685
80.02	17.9916
80.24	33.3486
80.46	1.66467
80.68	18.2636
80.9	8.65125
81.12	19.0565
81.34	21.3559
81.56	12.2498
81.78	32.1464
82	21.9757
82.22	7.00969
82.44	18.9155
82.66	30.7747
82.88	5.884
83.1	17.1974
83.32	38.2241
83.54	41.6567
83.76	15.1899
83.98	4.823
84.2	20.036
84.42	12.2309
84.64	21.4159
84.86	44.4273
85.08	13.756
85.3	19.9967
85.52	28.8382
85.74	23.1366
85.96	2.94281
86.18	25.6385
86.4	4.09291
86.62	4.35637
86.84	11.773
87.06	10.7864
87.28	24.8326
87.5	25.7662
87.72	2.03457
87.94	9.5934
88.16	15.6078
88.38	9.98143
88.6	20.1297
88.82	17.4833
89.04	14.6288
89.26	20.98
89.48	7.51964
89.7	1.79034
89.92	18.0854
