Measurement: Powder, Xray Data XY Processed
Mineral: Allanite-(Ce)
Rruff sample: R080092
Ideal chemistry: CaCeAl_2_Fe^2+^(Si_2_O_7_)(SiO_4_)O(OH)
Locality: Arendal, Norway
Source: University of Arizona Mineral Museum
Description: Dark brown fragment from metamict sample R050043, after heating at T = 1000 C for 18 hours
Diffraction sample description: Powder
x	intensity
5	0
5.22	9.06079
5.44	7.83038
5.66	2.14435
5.88	13.9993
6.1	18.682
6.32	15.7087
6.54	14.5515
6.76	26.6996
6.98	14.3089
7.2	21.9535
7.42	10.2488
7.64	0.110756
7.86	6.93736
8.08	6.71803
8.3	6.9592
8.52	17.9443
8.74	6.27785
8.96	20.6554
9.18	4.59812
9.4	17.4886
9.62	9.88479
9.84	0.479637
10.06	9.09778
10.28	15.6681
10.5	6.29858
10.72	17.8216
10.94	2.12904
11.16	17.2809
11.38	20.683
11.6	9.48541
11.82	23.1867
12.04	18.4733
12.26	14.8268
12.48	5.22096
12.7	10.5128
12.92	13.9437
13.14	3.09341
13.36	7.82821
13.58	14.411
13.8	9.06587
14.02	11.331
14.24	1.2584
14.46	3.86313
14.68	9.30682
14.9	14.9536
15.12	7.03567
15.34	10.2822
15.56	0.129196
15.78	0.845589
16	9.67721
16.22	16.5948
16.44	6.91553
16.66	27.2094
16.88	7.66541
17.1	16.9629
17.32	13.9352
17.54	16.3007
17.76	7.72166
17.98	12.9586
18.2	17.7929
18.42	1.0071
18.64	19.2937
18.86	0.348938
19.08	7.93237
19.3	22.8465
19.52	12.6299
19.74	10.2059
19.96	18.1972
20.18	1.24396
20.4	3.81537
20.62	21.6413
20.84	3.77072
21.06	9.73609
21.28	14.0867
21.5	28.7655
21.72	18.3191
21.94	42.0682
22.16	9.37487
22.38	10.8248
22.6	63.9444
22.82	10.9418
23.04	24.6614
23.26	21.2826
23.48	17.2135
23.7	18.6093
23.92	16.0736
24.14	40.7594
24.36	7.92798
24.58	10.4894
24.8	13.9054
25.02	6.45975
25.24	4.09964
25.46	24.0303
25.68	1.96225
25.9	0.545956
26.12	19.5057
26.34	23.256
26.56	25.6722
26.78	18.2289
27	2.24512
27.22	6.69582
27.44	20.8208
27.66	36.1626
27.88	74.4208
28.1	48.1535
28.32	70.9608
28.54	22.7259
28.76	34.51
28.98	4.42072
29.2	12.3831
29.42	14.3215
29.64	17.6206
29.86	12.3372
30.08	24.921
30.3	36.8233
30.52	18.1763
30.74	2.64208
30.96	3.24429
31.18	1.84468
31.4	109.062
31.62	58.0414
31.84	39.1817
32.06	6.91781
32.28	15.9416
32.5	18.2718
32.72	33.7436
32.94	34.7533
33.16	72.5753
33.38	2.09049
33.6	4.83848
33.82	5.8102
34.04	6.59412
34.26	1.13783
34.48	18.5126
34.7	24.3646
34.92	4.71064
35.14	12.7149
35.36	36.4577
35.58	35.8299
35.8	27.5302
36.02	10.7904
36.24	1.17295
36.46	5.69389
36.68	7.67753
36.9	2.68321
37.12	16.3668
37.34	29.7318
37.56	14.8519
37.78	16.8663
38	15.5123
38.22	15.2165
38.44	16.9098
38.66	0.851974
38.88	7.61428
39.1	13.277
39.32	21.8937
39.54	2.49128
39.76	12.1128
39.98	9.36448
40.2	16.0277
40.42	10.9841
40.64	7.85524
40.86	17.6534
41.08	2.96527
41.3	17.7549
41.52	17.0628
41.74	20.0378
41.96	11.0296
42.18	22.9918
42.4	17.6484
42.62	2.7717
42.84	3.07247
43.06	3.30962
43.28	14.1429
43.5	8.96407
43.72	7.38734
43.94	15.236
44.16	5.97186
44.38	2.57716
44.6	14.6326
44.82	27.093
45.04	12.3036
45.26	17.1893
45.48	13.0395
45.7	1.47886
45.92	8.75988
46.14	34.4913
46.36	15.313
46.58	17.5813
46.8	11.1202
47.02	32.6029
47.24	14.8058
47.46	18.8947
47.68	13.9121
47.9	0.151745
48.12	12.7066
48.34	4.73906
48.56	17.7033
48.78	26.7166
49	16.6588
49.22	11.6264
49.44	12.7245
49.66	15.8566
49.88	18.007
50.1	9.53312
50.32	1.82959
50.54	12.7618
50.76	2.87002
50.98	16.6433
51.2	0.882156
51.42	15.9902
51.64	17.673
51.86	13.9569
52.08	6.14685
52.3	6.1294
52.52	29.801
52.74	19.9977
52.96	24.3194
53.18	3.64751
53.4	6.76304
53.62	3.47633
53.84	2.8918
54.06	24.1955
54.28	6.21199
54.5	20.5743
54.72	9.92176
54.94	9.30396
55.16	10.6518
55.38	11.4898
55.6	20.5338
55.82	29.7244
56.04	24.8586
56.26	21.216
56.48	0.050732
56.7	4.66233
56.92	5.85395
57.14	18.9682
57.36	8.34997
57.58	15.2584
57.8	10.1019
58.02	13.7041
58.24	5.37667
58.46	17.39
58.68	21.249
58.9	14.2538
59.12	6.95347
59.34	13.418
59.56	3.43369
59.78	27.1091
60	12.0434
60.22	13.8995
60.44	2.13065
60.66	19.8178
60.88	5.94972
61.1	9.86516
61.32	7.88452
61.54	8.56298
61.76	4.19849
61.98	11.0744
62.2	14.0318
62.42	18.4877
62.64	9.46528
62.86	2.33495
63.08	19.7489
63.3	3.69314
63.52	15.5045
63.74	7.03915
63.96	15.0987
64.18	18.2932
64.4	11.7337
64.62	7.14612
64.84	4.70823
65.06	28.297
65.28	15.8713
65.5	13.1911
65.72	15.5851
65.94	11.0535
66.16	2.64332
66.38	3.4603
66.6	7.95564
66.82	7.02839
67.04	1.91429
67.26	11.158
67.48	3.36526
67.7	16.2261
67.92	14.1719
68.14	11.1397
68.36	23.091
68.58	1.3373
68.8	7.66161
69.02	7.32555
69.24	27.4232
69.46	14.7257
69.68	13.6953
69.9	5.56623
70.12	14.1493
70.34	8.25619
70.56	10.3465
70.78	14.106
71	18.9434
71.22	15.8234
71.44	21.7504
71.66	6.55278
71.88	27.4604
72.1	10.2611
72.32	15.486
72.54	8.21941
72.76	3.26767
72.98	4.13786
73.2	6.19513
73.42	3.54268
73.64	14.276
73.86	5.42424
74.08	14.4311
74.3	13.627
74.52	13.3666
74.74	16.8156
74.96	6.48005
75.18	0.244926
75.4	14.5049
75.62	1.46849
75.84	17.18
76.06	19.2821
76.28	21.1832
76.5	21.1468
76.72	7.98677
76.94	7.57259
77.16	30.9341
77.38	23.9422
77.6	12.7764
77.82	13.1077
78.04	4.35803
78.26	9.82434
78.48	11.9407
78.7	9.4332
78.92	0.677261
79.14	6.39605
79.36	1.62199
79.58	11.5944
79.8	9.48254
80.02	24.4885
80.24	6.40139
80.46	27.5806
80.68	4.63671
80.9	12.8005
81.12	16.6724
81.34	13.8328
81.56	1.39625
81.78	12.4537
82	4.50987
82.22	12.4279
82.44	2.48027
82.66	6.92364
82.88	7.66903
83.1	3.38961
83.32	17.1784
83.54	13.6224
83.76	7.72813
83.98	21.9051
84.2	1.73641
84.42	30.849
84.64	18.9548
84.86	24.2043
85.08	6.2785
85.3	13.8096
85.52	14.6654
85.74	0.463234
85.96	12.3812
86.18	10.5507
86.4	27.1598
86.62	24.331
86.84	14.3068
87.06	4.76872
87.28	7.74479
87.5	12.0388
87.72	0.346848
87.94	9.86603
88.16	15.4044
88.38	13.2006
88.6	0.823994
88.82	17.9255
89.04	17.3657
89.26	7.1207
89.48	10.0975
89.7	17.8174
89.92	9.14685
