Measurement: Powder, Xray Data XY Processed
Mineral: Allanite-(Ce)
Rruff sample: R060418
Ideal chemistry: CaCeAl_2_Fe^2+^(Si_2_O_7_)(SiO_4_)O(OH)
Locality: Aquarius Range, Mohave County, Arizona, USA
Source: John Weber
Description: Dark brown partially metamict, note that a fragment of this sample was heated and is posted at R080044
Diffraction sample description: Powder, cell parameters are from single crystal
Measured chemistry: Ca_1.00_(Ce^3+^_0.36_Nd_0.18_La_0.13_Y_0.09_Th_0.07_Mn_0.06_Ca_0.06_Ti_0.05_)_Σ=1_Fe^2+^_1.00_(Al_1.88_Fe^3+^_0.12_)_Σ=2_[Si_2.00_O_7_][Si_1.00_O_4_]O(OH)
Cell parameters: a: 9.01(1) b: 5.78(1) c: 10.36(1) alpha: 90 beta: 115.48(5) gamma: 90 volume: 488(4) crystal system: monoclinic
x	intensity
5	0
5.22	2.15117
5.44	9.1727
5.66	12.0645
5.88	7.0083
6.1	2.99445
6.32	8.44045
6.54	9.86031
6.76	11.3886
6.98	10.6662
7.2	6.14951
7.42	8.23663
7.64	16.5362
7.86	1.37709
8.08	13.5449
8.3	11.9606
8.52	6.35415
8.74	8.29623
8.96	13.4726
9.18	7.74659
9.4	18.7536
9.62	3.73837
9.84	12.7146
10.06	9.92976
10.28	3.36817
10.5	13.3598
10.72	24.2267
10.94	13.2761
11.16	12.605
11.38	7.88577
11.6	4.69883
11.82	0.942423
12.04	9.15148
12.26	0.198896
12.48	16.3898
12.7	2.41181
12.92	1.47337
13.14	7.69009
13.36	5.02074
13.58	4.79057
13.8	9.85049
14.02	3.00963
14.24	3.97454
14.46	1.82123
14.68	15.9667
14.9	20.0436
15.12	2.00035
15.34	9.11687
15.56	16.5729
15.78	15.256
16	6.29332
16.22	2.81154
16.44	6.56932
16.66	12.4448
16.88	2.25765
17.1	5.00707
17.32	0.054499
17.54	13.0295
17.76	10.0289
17.98	0.618141
18.2	2.4888
18.42	22.4463
18.64	17.5987
18.86	24.3084
19.08	14.4172
19.3	7.53289
19.52	6.80285
19.74	10.6051
19.96	6.6759
20.18	8.37979
20.4	8.25934
20.62	6.04366
20.84	14.9193
21.06	3.66549
21.28	0.980011
21.5	9.20088
21.72	16.2055
21.94	2.94834
22.16	13.9846
22.38	1.75753
22.6	12.2967
22.82	4.36099
23.04	16.8116
23.26	17.9778
23.48	11.0185
23.7	11.2372
23.92	13.9092
24.14	12.6954
24.36	7.65404
24.58	7.3478
24.8	9.01622
25.02	13.1871
25.24	16.2095
25.46	25.5686
25.68	12.0904
25.9	4.80354
26.12	12.0707
26.34	3.89662
26.56	1.71339
26.78	20.4557
27	8.43531
27.22	14.5731
27.44	8.47692
27.66	8.18735
27.88	7.13893
28.1	9.07034
28.32	5.32221
28.54	13.3904
28.76	9.21348
28.98	14.3328
29.2	12.5866
29.42	4.254
29.64	6.86526
29.86	9.87381
30.08	10.4929
30.3	11.4755
30.52	3.46308
30.74	4.12047
30.96	3.66128
31.18	18.6352
31.4	1.76625
31.62	7.82735
31.84	1.03192
32.06	2.94593
32.28	4.38105
32.5	13.5748
32.72	0.372782
32.94	10.4052
33.16	14.5033
33.38	4.22126
33.6	4.1424
33.82	19.1703
34.04	13.4849
34.26	9.97537
34.48	5.57394
34.7	5.28339
34.92	12.2666
35.14	3.87128
35.36	15.2005
35.58	8.44372
35.8	7.85564
36.02	4.94755
36.24	3.55206
36.46	7.77821
36.68	15.5889
36.9	11.6049
37.12	11.2416
37.34	15.8487
37.56	9.61842
37.78	10.7304
38	3.16159
38.22	2.0236
38.44	12.2462
38.66	7.87843
38.88	9.54926
39.1	11.673
39.32	4.22933
39.54	6.38514
39.76	1.65782
39.98	9.66998
40.2	5.49895
40.42	3.5026
40.64	4.05445
40.86	5.11916
41.08	11.758
41.3	16.3393
41.52	14.3182
41.74	10.0013
41.96	0.850763
42.18	6.4717
42.4	10.2586
42.62	11.1563
42.84	11.5271
43.06	6.91544
43.28	4.15865
43.5	12.951
43.72	9.21547
43.94	1.68244
44.16	6.54383
44.38	17.7178
44.6	5.82996
44.82	13.6904
45.04	10.803
45.26	18.7292
45.48	2.46419
45.7	2.3627
45.92	25.4266
46.14	1.58246
46.36	4.37041
46.58	10.1061
46.8	0.211596
47.02	12.7779
47.24	8.28008
47.46	10.0788
47.68	6.96289
47.9	11.9294
48.12	9.92048
48.34	4.14478
48.56	10.5941
48.78	2.52487
49	6.86742
49.22	10.7857
49.44	1.92649
49.66	5.25237
49.88	8.6471
50.1	13.5618
50.32	3.75636
50.54	12.6874
50.76	6.27318
50.98	2.33222
51.2	7.72791
51.42	0.53076
51.64	6.16174
51.86	0.186527
52.08	4.82931
52.3	8.65189
52.52	7.86826
52.74	7.64863
52.96	16.9472
53.18	10.9974
53.4	22.1293
53.62	1.89623
53.84	11.7833
54.06	15.0051
54.28	7.84005
54.5	6.09734
54.72	4.99198
54.94	18.6947
55.16	8.78049
55.38	15.4104
55.6	7.50387
55.82	10.752
56.04	8.29701
56.26	9.4848
56.48	13.947
56.7	9.96984
56.92	5.8429
57.14	0.841879
57.36	10.7199
57.58	13.4515
57.8	6.59076
58.02	9.60635
58.24	12.2584
58.46	6.75951
58.68	3.83989
58.9	3.16603
59.12	2.49108
59.34	7.80809
59.56	11.2706
59.78	2.99755
60	19.6138
60.22	12.6216
60.44	7.36544
60.66	9.49599
60.88	10.7729
61.1	5.6523
61.32	3.3763
61.54	7.09865
61.76	10.1956
61.98	3.8131
62.2	6.96323
62.42	10.9976
62.64	14.0032
62.86	10.0104
63.08	15.2012
63.3	9.91077
63.52	5.99529
63.74	6.83741
63.96	11.1958
64.18	12.9785
64.4	0.005144
64.62	3.17477
64.84	6.90432
65.06	1.2884
65.28	12.7289
65.5	19.6676
65.72	5.8695
65.94	5.9689
66.16	4.81276
66.38	8.63168
66.6	13.9994
66.82	15.0527
67.04	9.56182
67.26	10.6474
67.48	17.8031
67.7	9.43243
67.92	5.45308
68.14	2.58946
68.36	5.44954
68.58	5.31415
68.8	19.2427
69.02	5.50048
69.24	13.5203
69.46	5.13379
69.68	8.62513
69.9	6.53437
70.12	21.4809
70.34	1.70183
70.56	14.4667
70.78	12.283
71	11.8419
71.22	4.84056
71.44	2.20432
71.66	11.4824
71.88	6.30184
72.1	17.9334
72.32	8.32897
72.54	0.257183
72.76	18.367
72.98	4.15279
73.2	4.89085
73.42	0.944246
73.64	14.9561
73.86	3.89877
74.08	7.73301
74.3	6.84474
74.52	17.4274
74.74	4.40062
74.96	9.77381
75.18	2.22912
75.4	8.31727
75.62	14.4687
75.84	3.91678
76.06	0.763247
76.28	0.617851
76.5	11.5225
76.72	10.5334
76.94	9.42876
77.16	6.16761
77.38	16.8641
77.6	10.3823
77.82	16.3168
78.04	14.0215
78.26	17.7037
78.48	9.70337
78.7	4.16307
78.92	11.1134
79.14	1.99248
79.36	0.924967
79.58	11.0036
79.8	9.30268
80.02	9.83907
80.24	7.21296
80.46	6.69617
80.68	11.9582
80.9	6.82369
81.12	14.1844
81.34	5.25297
81.56	5.43647
81.78	4.49522
82	15.4193
82.22	9.01435
82.44	21.4509
82.66	15.5334
82.88	7.21706
83.1	13.1016
83.32	2.11956
83.54	10.3484
83.76	8.56013
83.98	10.387
84.2	3.41152
84.42	6.35458
84.64	1.46297
84.86	13.5143
85.08	9.31898
85.3	16.2171
85.52	6.03548
85.74	2.75374
85.96	3.36592
86.18	13.2025
86.4	5.3076
86.62	11.2582
86.84	1.31112
87.06	8.92857
87.28	12.8431
87.5	4.88634
87.72	15.2077
87.94	4.69825
88.16	7.83929
88.38	14.0476
88.6	13.3013
88.82	11.2568
89.04	9.1184
89.26	10.9954
89.48	4.9349
89.7	11.5119
89.92	4.04322
