Measurement: Powder, Xray Data XY Processed
Mineral: Almandine
Rruff sample: R040079
Ideal chemistry: Fe^2+^_3_Al_2_(SiO_4_)_3_
Locality: Ontario, Canada
Source: University of Arizona Mineral Museum
Description: Dark red dodecahedral crystal
Diffraction sample description: Powder
Measured chemistry: (Fe^2+^_2.29_Mg_0.53_Ca_0.18_)_Î£=3_Al_2.00_(Si_1.00_O_4_)_3_
Cell parameters: a: 11.5379(2) b: 11.5379(2) c: 11.5379(2) alpha: 90. beta: 90. gamma: 90. volume: 1535.98(9) crystal system: cubic
x	intensity
5	0
5.22	26.674
5.44	19.456
5.66	17.754
5.88	16.666
6.1	1.585
6.32	36.867
6.54	25.844
6.76	16.316
6.98	30.817
7.2	38.019
7.42	20.149
7.64	5.762
7.86	7.331
8.08	42.582
8.3	18.406
8.52	14.913
8.74	8.878
8.96	29.084
9.18	27.451
9.4	1.555
9.62	36.8
9.84	17.29
10.06	28.55
10.28	10.981
10.5	19.613
10.72	19.179
10.94	38.963
11.16	39.743
11.38	42.094
11.6	30.038
11.82	32.156
12.04	28.804
12.26	30.223
12.48	25.43
12.7	18.448
12.92	14.036
13.14	14.833
13.36	14.926
13.58	6.206
13.8	1.425
14.02	29.369
14.24	17.471
14.46	15.151
14.68	32.734
14.9	2.899
15.12	21.336
15.34	17.024
15.56	38.494
15.78	38.702
16	10.897
16.22	31.795
16.44	16.552
16.66	3.793
16.88	37.276
17.1	31.336
17.32	29.072
17.54	28.174
17.76	8.944
17.98	28.446
18.2	31.441
18.42	23.141
18.64	28.881
18.86	57.583
19.08	24.201
19.3	12.28
19.52	17.867
19.74	28.87
19.96	13.544
20.18	8.333
20.4	11.125
20.62	1.013
20.84	37.372
21.06	33.497
21.28	40.664
21.5	24.014
21.72	6.994
21.94	4.944
22.16	1.445
22.38	32.101
22.6	24.711
22.82	13.283
23.04	28.146
23.26	27.354
23.48	36.861
23.7	9.746
23.92	13.983
24.14	9.678
24.36	35.094
24.58	15.403
24.8	8.078
25.02	40.033
25.24	14.411
25.46	11.392
25.68	19.958
25.9	27.493
26.12	45.084
26.34	35.082
26.56	6.614
26.78	12.976
27	16.48
27.22	29.136
27.44	16.384
27.66	33.773
27.88	24.985
28.1	5.678
28.32	53.546
28.54	5.088
28.76	3.509
28.98	13.163
29.2	21.859
29.42	7.357
29.64	1.809
29.86	7.721
30.08	30.134
30.3	4.568
30.52	16.346
30.74	28.581
30.96	88.064
31.18	48.755
31.4	27.907
31.62	35.049
31.84	35.51
32.06	12.192
32.28	13.982
32.5	17.732
32.72	26.83
32.94	1.965
33.16	9.617
33.38	18.357
33.6	2.78
33.82	2.932
34.04	29.559
34.26	26.754
34.48	26.164
34.7	190.789
34.92	227.043
35.14	18.351
35.36	15.426
35.58	13.787
35.8	42.042
36.02	18.772
36.24	15.681
36.46	35.987
36.68	39.93
36.9	24.68
37.12	23.115
37.34	28.654
37.56	10.325
37.78	40.686
38	31.691
38.22	191.665
38.44	28.474
38.66	37.491
38.88	5.903
39.1	25.575
39.32	15.838
39.54	15.777
39.76	59.853
39.98	79.093
40.2	34.604
40.42	15.771
40.64	13.906
40.86	2.257
41.08	17.223
41.3	15.071
41.52	45.149
41.74	33.233
41.96	9.472
42.18	18.237
42.4	19.88
42.62	23.894
42.84	65.35
43.06	105.66
43.28	18.458
43.5	23.076
43.72	23.231
43.94	11.138
44.16	22.831
44.38	29.59
44.6	18.874
44.82	1.9
45.04	1.685
45.26	22.628
45.48	23.366
45.7	18.567
45.92	14.688
46.14	35.889
46.36	25.819
46.58	17.669
46.8	28.706
47.02	9.545
47.24	15.813
47.46	26.505
47.68	1.484
47.9	10.574
48.12	2.351
48.34	30.364
48.56	70.169
48.78	116.084
49	30.604
49.22	20.828
49.44	37.25
49.66	21.027
49.88	16.481
50.1	0.401
50.32	2.047
50.54	25.205
50.76	19.744
50.98	1.359
51.2	27.119
51.42	1.996
51.64	18.087
51.86	6.627
52.08	14.154
52.3	14.94
52.52	30.52
52.74	10.33
52.96	43.489
53.18	24.654
53.4	24.915
53.62	20.971
53.84	9.917
54.06	30.555
54.28	35.483
54.5	4.344
54.72	11.659
54.94	19.605
55.16	162.388
55.38	55.7
55.6	12.905
55.82	10.934
56.04	47.18
56.26	9.141
56.48	23.998
56.7	25.704
56.92	41.336
57.14	22.617
57.36	8.622
57.58	211.82
57.8	92.699
58.02	36.841
58.24	24.009
58.46	26.418
58.68	15.179
58.9	29.002
59.12	11.69
59.34	7.366
59.56	57.57
59.78	43.291
60	265.573
60.22	56.459
60.44	19.784
60.66	8.557
60.88	12.443
61.1	26.067
61.32	12.727
61.54	14.942
61.76	17.623
61.98	27.43
62.2	2.318
62.42	27.996
62.64	21.142
62.86	10.052
63.08	13.642
63.3	6.283
63.52	22.998
63.74	47.949
63.96	7.899
64.18	20.756
64.4	10.885
64.62	105.422
64.84	54.539
65.06	6.512
65.28	32.629
65.5	6.98
65.72	13.162
65.94	48.138
66.16	2.097
66.38	69.093
66.6	18.983
66.82	22.013
67.04	42.062
67.26	24.524
67.48	26.229
67.7	7.987
67.92	41.348
68.14	7.448
68.36	29.979
68.58	36.399
68.8	19.524
69.02	3.493
69.24	31.95
69.46	11.949
69.68	20.714
69.9	18.859
70.12	25.055
70.34	28.637
70.56	13.557
70.78	31.927
71	7.756
71.22	20.388
71.44	26.834
71.66	27.402
71.88	10.227
72.1	3.716
72.32	16.33
72.54	16.587
72.76	31.948
72.98	28.859
73.2	42.754
73.42	78.525
73.64	37.947
73.86	33.711
74.08	30.496
74.3	2.69
74.52	25.798
74.74	59.255
74.96	38.599
75.18	5.572
75.4	56.288
75.62	85.718
75.84	13.474
76.06	20.716
76.28	25.924
76.5	14.839
76.72	12.029
76.94	24.373
77.16	1.615
77.38	39.894
77.6	40.757
77.82	24.916
78.04	21.779
78.26	21.581
78.48	17.401
78.7	1.895
78.92	50.024
79.14	28.091
79.36	0.049
79.58	8.982
79.8	28.342
80.02	5.183
80.24	10.547
80.46	22.673
80.68	35.303
80.9	10.986
81.12	25.112
81.34	0.048
81.56	7.156
81.78	28.388
82	23.27
82.22	19.044
82.44	31.311
82.66	43.173
82.88	6.045
83.1	22.891
83.32	25.607
83.54	25.526
83.76	15.937
83.98	4.564
84.2	41.508
84.42	23.387
84.64	26.965
84.86	20.741
85.08	2.091
85.3	17.175
85.52	51.772
85.74	28.08
85.96	9.835
86.18	32.518
86.4	34.456
86.62	44.523
86.84	9.644
87.06	27.772
87.28	19.907
87.5	43.43
87.72	10.144
87.94	16.101
88.16	8.037
88.38	19.465
88.6	22.042
88.82	1.613
89.04	21.55
89.26	29.272
89.48	30.508
89.7	20.717
89.92	25.775
