Measurement: Powder, Xray Data XY Processed
Mineral: Alum-(K)
Rruff sample: R060014
Ideal chemistry: KAl(S^6+^O_4_)_2_12H_2_O
Locality: Tolfa, Italy
Source: American Museum of Natural History
Description: Colorless fragment
Diffraction sample description: Powder
Cell parameters: a: 12.162141(74) b: 12.162141(74) c: 12.162141(74) alpha: 90. beta: 90. gamma: 90. volume: 1798.995(33) crystal system: cubic
x	intensity
5	0
5.22	7.415
5.44	11.285
5.66	9.739
5.88	3.545
6.1	6.577
6.32	1.911
6.54	0.945
6.76	6.253
6.98	8.669
7.2	10.835
7.42	9.432
7.64	7.887
7.86	1.705
8.08	1.155
8.3	12.462
8.52	0.148
8.74	0.798
8.96	4.481
9.18	0.474
9.4	7.465
9.62	8.586
9.84	4.765
10.06	8.794
10.28	2.704
10.5	0.5
10.72	0.448
10.94	3.922
11.16	5.116
11.38	7.221
11.6	7.235
11.82	3.277
12.04	3.196
12.26	2.013
12.48	11.049
12.7	29.091
12.92	6.259
13.14	7.374
13.36	4.13
13.58	0.054
13.8	1.851
14.02	6.926
14.24	10.068
14.46	7.926
14.68	10.136
14.9	3.264
15.12	2.005
15.34	3.747
15.56	3.476
15.78	8.262
16	0.936
16.22	22.863
16.44	17.924
16.66	6.768
16.88	3.656
17.1	7.313
17.32	8.337
17.54	0.518
17.76	10.56
17.98	29.864
18.2	10.224
18.42	4.425
18.64	10.624
18.86	6.254
19.08	6.102
19.3	2.939
19.52	0.381
19.74	0.942
19.96	1.798
20.18	14.791
20.4	5.311
20.62	165.625
20.84	25.135
21.06	9.751
21.28	7.678
21.5	6.672
21.72	9.66
21.94	400.025
22.16	14.479
22.38	10.636
22.6	10.664
22.82	3.171
23.04	8.576
23.26	1.835
23.48	8.055
23.7	2.228
23.92	1.389
24.14	3.836
24.36	43.575
24.58	5.607
24.8	15.465
25.02	12.403
25.24	3.921
25.46	7.55
25.68	3.279
25.9	4.393
26.12	1.954
26.34	6.428
26.56	14.067
26.78	7.859
27	10.643
27.22	8.312
27.44	355.934
27.66	19.91
27.88	7.778
28.1	6.767
28.32	5.213
28.54	3.177
28.76	8.963
28.98	11.107
29.2	9.753
29.42	189.568
29.64	12.517
29.86	5.644
30.08	1.78
30.3	107.965
30.52	8.446
30.74	3.375
30.96	9.005
31.18	37.778
31.4	4.197
31.62	7.005
31.84	1.384
32.06	114.039
32.28	21.248
32.5	9.316
32.72	10.161
32.94	98.713
33.16	10.125
33.38	6.461
33.6	5.786
33.82	120.564
34.04	10.118
34.26	6.003
34.48	8.531
34.7	53.535
34.92	3.979
35.14	11.314
35.36	12.481
35.58	3.466
35.8	14.49
36.02	0.531
36.24	30.62
36.46	13.532
36.68	1.022
36.9	1.733
37.12	1.959
37.34	2.294
37.56	8.624
37.78	23.286
38	11.634
38.22	7.785
38.44	36.921
38.66	8.508
38.88	11.313
39.1	3.305
39.32	1.095
39.54	6.636
39.76	6.529
39.98	12.457
40.2	8.309
40.42	5.397
40.64	41.297
40.86	0.847
41.08	2.095
41.3	4.217
41.52	6.211
41.74	0.793
41.96	0.569
42.18	12.77
42.4	8.648
42.62	14.601
42.84	23.13
43.06	10.88
43.28	0.157
43.5	19.798
43.72	8.53
43.94	6.726
44.16	11.674
44.38	14.288
44.6	5.555
44.82	34.6
45.04	1.389
45.26	9.808
45.48	21.346
45.7	6.418
45.92	11.727
46.14	37.864
46.36	4.755
46.58	0.034
46.8	1.451
47.02	0.021
47.24	74.071
47.46	24.313
47.68	0.615
47.9	19.131
48.12	9.886
48.34	4.952
48.56	8.06
48.78	7.161
49	0.161
49.22	22.157
49.44	4.534
49.66	8.269
49.88	7.293
50.1	13.51
50.32	19.808
50.54	9.116
50.76	2.379
50.98	9.638
51.2	2.202
51.42	7.654
51.64	3.828
51.86	12.013
52.08	16.648
52.3	2.34
52.52	4.644
52.74	7.366
52.96	4.252
53.18	4.017
53.4	8.704
53.62	6.257
53.84	11.827
54.06	11.598
54.28	10.428
54.5	7.286
54.72	0.694
54.94	1.591
55.16	10.941
55.38	16.135
55.6	4.29
55.82	3.541
56.04	5.71
56.26	0.799
56.48	11.973
56.7	7.11
56.92	9.425
57.14	11.276
57.36	8.28
57.58	3.28
57.8	7.164
58.02	3.246
58.24	19.232
58.46	1.577
58.68	7.662
58.9	2.573
59.12	1.644
59.34	14.729
59.56	1.08
59.78	6.11
60	12.99
60.22	10.02
60.44	1.114
60.66	8.846
60.88	9.665
61.1	0.561
61.32	4.457
61.54	5.371
61.76	3.03
61.98	17.816
62.2	3.757
62.42	1.748
62.64	0.793
62.86	5.01
63.08	10.282
63.3	18.588
63.52	12.267
63.74	6.529
63.96	6.577
64.18	5.859
64.4	2.967
64.62	7.867
64.84	7.844
65.06	35.764
65.28	10.51
65.5	1.465
65.72	0.735
65.94	3.619
66.16	4.731
66.38	7.676
66.6	8.56
66.82	0.217
67.04	8.842
67.26	6.059
67.48	6.126
67.7	5.265
67.92	2.725
68.14	2.28
68.36	2.541
68.58	4.334
68.8	5.304
69.02	9.299
69.24	8.125
69.46	7.111
69.68	13.831
69.9	5.843
70.12	1.235
70.34	4.703
70.56	8.633
70.78	4.305
71	4.249
71.22	12.424
71.44	12.323
71.66	3.286
71.88	3.134
72.1	4.192
72.32	0.867
72.54	0.088
72.76	1.017
72.98	15.281
73.2	5.511
73.42	16.872
73.64	2.83
73.86	5.179
74.08	10.253
74.3	1.435
74.52	6.732
74.74	5.994
74.96	2.301
75.18	6.528
75.4	3.585
75.62	2.492
75.84	9.387
76.06	5.47
76.28	0.212
76.5	8.323
76.72	18.126
76.94	11.163
77.16	3.9
77.38	2.586
77.6	8.22
77.82	8.965
78.04	0.102
78.26	2.717
78.48	0.819
78.7	1.915
78.92	4.78
79.14	10.94
79.36	16.024
79.58	2.173
79.8	3.639
80.02	0.043
80.24	6.298
80.46	14.324
80.68	7.475
80.9	4.337
81.12	1.37
81.34	6.198
81.56	12.854
81.78	6.594
82	5.386
82.22	10.91
82.44	0.508
82.66	6.367
82.88	9.304
83.1	2.227
83.32	15.36
83.54	5.19
83.76	7.461
83.98	5.732
84.2	1.81
84.42	4.882
84.64	8.169
84.86	9.194
85.08	1.119
85.3	3.095
85.52	7.014
85.74	9.183
85.96	3.273
86.18	2.085
86.4	5.951
86.62	10.051
86.84	5.428
87.06	8.373
87.28	2.428
87.5	8.487
87.72	1.552
87.94	4.667
88.16	4.488
88.38	7.672
88.6	0.084
88.82	8.006
89.04	5.884
89.26	5.976
89.48	0.759
89.7	4.849
89.92	6.023
