Measurement: Powder, Xray Data XY Processed
Mineral: Ammonioalunite
Rruff sample: R060873
Ideal chemistry: N^3-^H_4_Al_3_(S^6+^O_4_)_2_(OH)_6_
Locality: Sch√∂ller mine, Kladno, Central Bohemia Region, Bohemia, Czech Republic
Source: Michael Scott
Description: Tan colored fine-grained consolidated fragments
Diffraction sample description: Powder
Cell parameters: a: 7.012(2) b: 7.012(2) c: 17.826(5) alpha: 90 beta: 90 gamma: 120 volume: 759.0(4) crystal system: hexagonal
x	intensity
5	0
5.22	0.781296
5.44	7.99712
5.66	4.60208
5.88	11.2465
6.1	12.219
6.32	7.42241
6.54	10.4705
6.76	2.37477
6.98	7.70864
7.2	2.96736
7.42	7.23732
7.64	2.55399
7.86	1.11838
8.08	3.92363
8.3	11.3353
8.52	8.03555
8.74	16.4596
8.96	2.27033
9.18	10.7004
9.4	9.55603
9.62	7.61367
9.84	7.83334
10.06	10.6925
10.28	6.22708
10.5	4.92063
10.72	2.80211
10.94	11.3351
11.16	0.866987
11.38	7.86357
11.6	5.63085
11.82	14.4631
12.04	5.24231
12.26	11.9766
12.48	9.13996
12.7	10.9428
12.92	6.31492
13.14	9.49529
13.36	10.3999
13.58	7.64198
13.8	4.44134
14.02	7.52889
14.24	7.82518
14.46	4.99055
14.68	2.02676
14.9	1.94384
15.12	10.3124
15.34	17.544
15.56	8.56657
15.78	8.54701
16	8.64577
16.22	3.85496
16.44	9.0094
16.66	0.994114
16.88	4.0944
17.1	9.45907
17.32	8.70559
17.54	0.20856
17.76	49.2596
17.98	10.4707
18.2	4.88348
18.42	6.25253
18.64	6.66426
18.86	2.99828
19.08	6.72496
19.3	3.1665
19.52	10.5612
19.74	5.68702
19.96	8.58
20.18	6.55822
20.4	12.5715
20.62	7.36314
20.84	8.29489
21.06	3.18592
21.28	0.392766
21.5	7.02929
21.72	2.96823
21.94	3.86871
22.16	5.92577
22.38	4.24329
22.6	5.7974
22.82	3.978
23.04	7.04689
23.26	13.2833
23.48	1.29805
23.7	6.02491
23.92	7.00824
24.14	8.80561
24.36	0.498023
24.58	7.27226
24.8	5.85496
25.02	5.59365
25.24	6.53831
25.46	18.4934
25.68	2.28876
25.9	2.68116
26.12	8.68523
26.34	10.4121
26.56	3.48162
26.78	33.5137
27	15.6526
27.22	0.572207
27.44	0.542766
27.66	10.1074
27.88	9.78873
28.1	17.3807
28.32	2.90837
28.54	10.0536
28.76	10.8169
28.98	11.3683
29.2	3.95509
29.42	6.77331
29.64	40.5856
29.86	18.2685
30.08	31.3639
30.3	8.40587
30.52	4.73168
30.74	0.975234
30.96	1.28852
31.18	5.7774
31.4	8.32399
31.62	12.8862
31.84	8.02176
32.06	4.15329
32.28	9.21453
32.5	12.6963
32.72	6.94889
32.94	1.00665
33.16	11.114
33.38	8.17628
33.6	5.98029
33.82	3.11553
34.04	5.99124
34.26	2.96566
34.48	0.798646
34.7	8.32818
34.92	3.12252
35.14	4.07479
35.36	6.04209
35.58	2.13961
35.8	18.3769
36.02	0.495335
36.24	3.38633
36.46	2.5217
36.68	4.69043
36.9	13.6158
37.12	10.5805
37.34	1.54706
37.56	1.44263
37.78	0.564414
38	8.76329
38.22	6.64945
38.44	13.6362
38.66	9.60923
38.88	6.6941
39.1	4.61095
39.32	10.6923
39.54	8.63335
39.76	11.6959
39.98	4.75894
40.2	3.93733
40.42	4.62366
40.64	7.10817
40.86	10.0172
41.08	3.34551
41.3	2.09949
41.52	4.02559
41.74	5.60961
41.96	6.49439
42.18	6.44321
42.4	3.51128
42.62	1.27731
42.84	5.32267
43.06	5.81549
43.28	12.9723
43.5	11.7215
43.72	6.86944
43.94	6.09888
44.16	10.159
44.38	13.1456
44.6	8.0159
44.82	2.03211
45.04	7.21519
45.26	9.53459
45.48	3.55701
45.7	10.6851
45.92	8.60254
46.14	5.67594
46.36	4.46035
46.58	2.45725
46.8	1.54738
47.02	1.17777
47.24	7.94147
47.46	15.037
47.68	15.9381
47.9	11.471
48.12	3.71235
48.34	9.86731
48.56	0.495526
48.78	8.78649
49	6.06852
49.22	11.1727
49.44	2.2044
49.66	0.348856
49.88	5.30454
50.1	10.0954
50.32	8.91601
50.54	6.5751
50.76	0.349616
50.98	9.81031
51.2	1.61653
51.42	9.45081
51.64	3.66505
51.86	2.61292
52.08	9.9025
52.3	25.0898
52.52	13.3163
52.74	5.2804
52.96	1.60005
53.18	2.0153
53.4	6.23975
53.62	4.53262
53.84	5.74614
54.06	5.53084
54.28	8.62564
54.5	2.47865
54.72	11.3448
54.94	7.4434
55.16	7.28351
55.38	8.35362
55.6	6.23855
55.82	8.17513
56.04	2.21099
56.26	6.06316
56.48	10.2142
56.7	7.096
56.92	1.94997
57.14	4.88883
57.36	4.75188
57.58	1.74962
57.8	3.43898
58.02	0.298212
58.24	9.33552
58.46	9.06274
58.68	3.07083
58.9	7.76877
59.12	3.68019
59.34	4.51785
59.56	0.472188
59.78	6.37307
60	8.42232
60.22	8.36255
60.44	1.67193
60.66	0.551906
60.88	5.66008
61.1	8.87934
61.32	6.04347
61.54	2.72223
61.76	8.59105
61.98	3.93069
62.2	11.164
62.42	1.39678
62.64	5.38559
62.86	4.46282
63.08	2.5436
63.3	8.55921
63.52	1.40714
63.74	5.45734
63.96	6.74643
64.18	6.58726
64.4	2.49335
64.62	7.63249
64.84	1.70178
65.06	4.6893
65.28	8.53004
65.5	2.74334
65.72	4.67656
65.94	2.61949
66.16	9.63998
66.38	12.4281
66.6	0.447206
66.82	10.2669
67.04	5.28852
67.26	8.97267
67.48	6.97576
67.7	7.26437
67.92	7.34525
68.14	14.3496
68.36	12.5532
68.58	16.4807
68.8	10.5443
69.02	5.5407
69.24	1.40476
69.46	3.39809
69.68	14.37
69.9	10.1972
70.12	6.98635
70.34	9.80048
70.56	2.15742
70.78	11.1495
71	6.14895
71.22	9.94159
71.44	3.10299
71.66	8.18893
71.88	9.32078
72.1	5.2974
72.32	2.29501
72.54	11.4318
72.76	16.2678
72.98	2.90223
73.2	7.83553
73.42	13.9523
73.64	0.707624
73.86	7.21802
74.08	5.10524
74.3	4.10746
74.52	7.21849
74.74	3.31621
74.96	6.22113
75.18	2.23021
75.4	9.56924
75.62	5.73569
75.84	2.77066
76.06	3.40813
76.28	6.34526
76.5	3.42563
76.72	12.2191
76.94	10.181
77.16	7.10289
77.38	14.4391
77.6	5.3332
77.82	6.35313
78.04	9.31412
78.26	7.21887
78.48	5.40771
78.7	1.42868
78.92	5.3996
79.14	5.36813
79.36	6.3608
79.58	8.41492
79.8	8.12314
80.02	5.26208
80.24	5.03301
80.46	10.79
80.68	0.474802
80.9	4.48434
81.12	0.691391
81.34	3.29035
81.56	9.26955
81.78	6.22713
82	1.50667
82.22	14.6492
82.44	4.67299
82.66	6.70059
82.88	4.91921
83.1	1.4479
83.32	1.57788
83.54	0.27795
83.76	10.7271
83.98	9.97944
84.2	13.0356
84.42	8.91732
84.64	5.97635
84.86	2.7663
85.08	4.82488
85.3	3.57737
85.52	3.18014
85.74	0.990246
85.96	5.84925
86.18	8.74493
86.4	8.7037
86.62	7.59475
86.84	4.53279
87.06	7.30738
87.28	4.30026
87.5	11.3626
87.72	7.4592
87.94	6.93775
88.16	3.18925
88.38	4.40859
88.6	7.688
88.82	8.57616
89.04	2.7914
89.26	2.2152
89.48	2.08438
89.7	3.70246
89.92	5.51052
