Measurement: Powder, Xray Data XY Processed
Mineral: Analcime
Rruff sample: R040128
Ideal chemistry: NaAlSi_2_O_6_H_2_O
Locality: Mont Saint-Hilaire, Rouville County, Quebec, Canada
Source: Bob Downs
Description: White trapezohedra associated with black arfvedsonite, R040127
Diffraction sample description: Powder
Measured chemistry: Na_0.93_(Si_2.04_Al_0.99_)O_6_Â·H_2_O
Cell parameters: a: 13.7318(7) b: 13.7318(7) c: 13.7232(10) alpha: 90. beta: 90. gamma: 90. volume: 2587.6(3) crystal system: tetragonal
x	intensity
5	0
5.22	1.52134
5.44	6.29493
5.66	3.10693
5.88	7.06385
6.1	8.19868
6.32	7.28822
6.54	0.246141
6.76	5.60943
6.98	2.75278
7.2	7.68678
7.42	10.8718
7.64	3.64671
7.86	0.761807
8.08	0.836238
8.3	10.4336
8.52	3.76252
8.74	4.68659
8.96	5.72085
9.18	4.44604
9.4	7.37249
9.62	8.54413
9.84	3.2652
10.06	8.53755
10.28	5.39265
10.5	5.44626
10.72	0.288737
10.94	5.09331
11.16	2.01904
11.38	3.81079
11.6	0.629365
11.82	1.59007
12.04	5.1856
12.26	0.167654
12.48	11.6781
12.7	6.79673
12.92	42.9327
13.14	14.7819
13.36	11.9015
13.58	4.53276
13.8	5.72461
14.02	7.07099
14.24	15.0925
14.46	15.8654
14.68	13.407
14.9	0.943153
15.12	6.61449
15.34	15.11
15.56	15.8694
15.78	454.61
16	58.9513
16.22	4.75235
16.44	15.3092
16.66	0.650038
16.88	8.38569
17.1	3.48688
17.32	2.6739
17.54	5.03635
17.76	5.55824
17.98	4.69831
18.2	26.2074
18.42	38.6528
18.64	8.10721
18.86	6.34097
19.08	3.74655
19.3	6.17426
19.52	8.72991
19.74	1.8439
19.96	4.32028
20.18	4.02976
20.4	3.51648
20.62	1.4695
20.84	8.58308
21.06	9.76868
21.28	4.9021
21.5	3.85721
21.72	0.093343
21.94	0.28536
22.16	4.76767
22.38	2.47282
22.6	5.59144
22.82	5.2859
23.04	5.69263
23.26	4.2478
23.48	24.9748
23.7	3.11971
23.92	8.97612
24.14	9.36994
24.36	85.6708
24.58	5.80959
24.8	3.27519
25.02	0.508469
25.24	7.86825
25.46	11.3333
25.68	8.09457
25.9	433.661
26.12	195.919
26.34	18.8567
26.56	11.0539
26.78	6.51753
27	11.8961
27.22	7.43096
27.44	3.88806
27.66	14.4877
27.88	2.84782
28.1	8.99447
28.32	3.47899
28.54	3.55061
28.76	10.5083
28.98	4.16599
29.2	18.6146
29.42	1.16195
29.64	6.58321
29.86	6.99671
30.08	4.26837
30.3	5.02724
30.52	552.176
30.74	58.0344
30.96	6.62185
31.18	12.4948
31.4	16.8926
31.62	8.15212
31.84	13.6549
32.06	38.0308
32.28	18.5168
32.5	0.133392
32.72	0.770313
32.94	7.43557
33.16	25.0123
33.38	133.649
33.6	8.78329
33.82	11.226
34.04	5.42194
34.26	1.41766
34.48	9.65072
34.7	6.58441
34.92	6.34216
35.14	3.98882
35.36	11.3363
35.58	8.0955
35.8	150.856
36.02	37.7232
36.24	5.59324
36.46	8.97929
36.68	4.32508
36.9	7.3229
37.12	79.5807
37.34	3.07845
37.56	10.4808
37.78	3.68185
38	3.91517
38.22	6.25531
38.44	8.55805
38.66	0.159617
38.88	4.92081
39.1	3.84595
39.32	4.86955
39.54	4.84514
39.76	16.6444
39.98	4.33225
40.2	2.72139
40.42	28.297
40.64	56.1728
40.86	5.04943
41.08	6.71804
41.3	7.66784
41.52	3.58745
41.74	9.60529
41.96	5.81043
42.18	2.23077
42.4	4.44123
42.62	16.136
42.84	5.4677
43.06	2.95316
43.28	3.58566
43.5	1.56581
43.72	0.400661
43.94	1.74656
44.16	6.91107
44.38	8.11946
44.6	1.23082
44.82	29.6652
45.04	5.88939
45.26	5.98764
45.48	6.86445
45.7	3.44366
45.92	12.1394
46.14	1.11693
46.36	2.72975
46.58	12.2675
46.8	14.5569
47.02	0.83094
47.24	4.06262
47.46	6.33476
47.68	33.4256
47.9	96.2228
48.12	8.17294
48.34	5.31003
48.56	0.524686
48.78	90.7086
49	10.3574
49.22	6.75424
49.44	4.29714
49.66	11.4444
49.88	3.87737
50.1	2.49856
50.32	12.7803
50.54	4.13762
50.76	2.24731
50.98	1.08394
51.2	1.82363
51.42	6.29544
51.64	6.06524
51.86	9.86233
52.08	17.6048
52.3	17.2242
52.52	166.761
52.74	13.0597
52.96	4.96608
53.18	3.68442
53.4	41.6765
53.62	18.9197
53.84	5.23457
54.06	3.31645
54.28	54.2289
54.5	24.5985
54.72	2.28307
54.94	0.636822
55.16	16.4491
55.38	14.5066
55.6	9.89625
55.82	0.90416
56.04	8.29911
56.26	3.48092
56.48	3.61335
56.7	4.70828
56.92	22.615
57.14	6.21162
57.36	1.36573
57.58	12.4474
57.8	41.504
58.02	12.7114
58.24	3.27594
58.46	4.15184
58.68	3.21174
58.9	5.53146
59.12	1.72249
59.34	4.16511
59.56	5.8406
59.78	9.71558
60	6.8506
60.22	5.02368
60.44	7.73353
60.66	3.08001
60.88	8.81678
61.1	2.40228
61.32	0.975597
61.54	1.4007
61.76	5.31106
61.98	21.1187
62.2	11.1913
62.42	3.80985
62.64	9.48767
62.86	20.8955
63.08	5.38979
63.3	8.57671
63.52	21.7963
63.74	18.1737
63.96	3.61955
64.18	5.03404
64.4	16.2696
64.62	8.23915
64.84	9.32622
65.06	4.4574
65.28	5.13031
65.5	4.44195
65.72	2.43532
65.94	47.5529
66.16	33.5095
66.38	5.2826
66.6	1.96715
66.82	0.216976
67.04	7.66868
67.26	2.39531
67.48	6.23215
67.7	7.86566
67.92	13.0259
68.14	5.79647
68.36	13.3893
68.58	11.1124
68.8	1.99313
69.02	41.4521
69.24	35.6375
69.46	6.76014
69.68	0.17208
69.9	11.7736
70.12	5.22794
70.34	1.68959
70.56	6.30179
70.78	1.69725
71	9.00095
71.22	2.28253
71.44	1.44132
71.66	3.40206
71.88	12.9207
72.1	19.986
72.32	11.6104
72.54	9.41232
72.76	1.26959
72.98	4.08865
73.2	10.0799
73.42	5.05045
73.64	40.9991
73.86	21.855
74.08	6.71014
74.3	3.08087
74.52	1.91225
74.74	0.869599
74.96	9.76499
75.18	33.8073
75.4	11.0615
75.62	5.00962
75.84	0.917679
76.06	2.65776
76.28	9.0732
76.5	1.48042
76.72	9.63992
76.94	9.75282
77.16	7.83284
77.38	11.0165
77.6	2.13214
77.82	6.82674
78.04	29.9592
78.26	36.2739
78.48	20.6003
78.7	3.79335
78.92	2.78334
79.14	6.01195
79.36	4.13729
79.58	6.23263
79.8	8.17105
80.02	3.01802
80.24	1.11889
80.46	5.68085
80.68	7.48758
80.9	8.84956
81.12	15.6117
81.34	14.2559
81.56	3.04647
81.78	9.01827
82	2.96246
82.22	6.45739
82.44	12.7332
82.66	6.99505
82.88	7.3177
83.1	2.63309
83.32	3.10042
83.54	2.60759
83.76	3.15254
83.98	13.3823
84.2	6.77064
84.42	1.8003
84.64	10.5984
84.86	4.57797
85.08	8.47282
85.3	14.4171
85.52	7.45944
85.74	7.18127
85.96	0.247628
86.18	2.60336
86.4	5.55532
86.62	13.3653
86.84	22.4636
87.06	16.5982
87.28	5.70617
87.5	1.75788
87.72	8.89516
87.94	6.15686
88.16	3.44854
88.38	3.84599
88.6	3.88623
88.82	0.897301
89.04	3.06536
89.26	5.2805
89.48	2.3678
89.7	15.2264
89.92	5.95007
