Measurement: Powder, Xray Data XY Processed
Mineral: Ancylite-(Ce)
Rruff sample: R060218
Ideal chemistry: CeSr(CO_3_)_2_(OH)H_2_O
Locality: Mont Saint-Hilaire, Rouville County, Quebec, Canada
Source: Royal Ontario Museum
Description: Pale pink prismatic crystals
Diffraction sample description: Single crystal, powder profile is calculated
Measured chemistry: (Ce_0.40_(La,Pr)_0.23_Ca_0.18_Nd_0.10_Sr_0.09_)_Σ=1_CO_3_((OH)_0.67_(H_2_O)_0.27_F_0.06_)_Σ=1_
Cell parameters: a: 4.992(3) b: 8.479(4) c: 7.247(4) alpha: 90 beta: 90 gamma: 90 volume: 306.74(15) crystal system: orthorhombic
x	intensity
5	0
5.22	0
5.44	0
5.66	0
5.88	0
6.1	0
6.32	0
6.54	0
6.76	0
6.98	0
7.2	0
7.42	0
7.64	0
7.86	0
8.08	0
8.3	0
8.52	0
8.74	0
8.96	0
9.18	0
9.4	0
9.62	0
9.84	0
10.06	0
10.28	0
10.5	0
10.72	0
10.94	0
11.16	0
11.38	0
11.6	0
11.82	0
12.04	0
12.26	0
12.48	0
12.7	0
12.92	0
13.14	0
13.36	0
13.58	0
13.8	0
14.02	0
14.24	0
14.46	0
14.68	0
14.9	0
15.12	0
15.34	0
15.56	0
15.78	0
16	1.362
16.22	0.021
16.44	0
16.66	0
16.88	0
17.1	0
17.32	0
17.54	0
17.76	0
17.98	0
18.2	0
18.42	0
18.64	0
18.86	0
19.08	0
19.3	0
19.52	0
19.74	0
19.96	0
20.18	0
20.4	0
20.62	89.464
20.84	0.106
21.06	0.678
21.28	0
21.5	0
21.72	0
21.94	0
22.16	0
22.38	0
22.6	0
22.82	0
23.04	0
23.26	0
23.48	0
23.7	0
23.92	0.021
24.14	10.726
24.36	27.335
24.58	11.359
24.8	0
25.02	0
25.24	0
25.46	0
25.68	0
25.9	0
26.12	0
26.34	0
26.56	0
26.78	24.297
27	0
27.22	0
27.44	0
27.66	0
27.88	0
28.1	0
28.32	0
28.54	0
28.76	0
28.98	0
29.2	0
29.42	0
29.64	0
29.86	0
30.08	0
30.3	11.621
30.52	41.447
30.74	0
30.96	0
31.18	0
31.4	0
31.62	0
31.84	0
32.06	0
32.28	0.095
32.5	5.259
32.72	0
32.94	0
33.16	0
33.38	0
33.6	0
33.82	0
34.04	26.368
34.26	0
34.48	0
34.7	0
34.92	0
35.14	0
35.36	0
35.58	0
35.8	0
36.02	13.286
36.24	0
36.46	1.527
36.68	0.059
36.9	0
37.12	0.003
37.34	8.115
37.56	0
37.78	0
38	0
38.22	0
38.44	0
38.66	30.952
38.88	3.308
39.1	0
39.32	0
39.54	0.113
39.76	0.177
39.98	0
40.2	0
40.42	0.239
40.64	0.002
40.86	0
41.08	0
41.3	0
41.52	0
41.74	0
41.96	7.409
42.18	0.034
42.4	0
42.62	12.779
42.84	0.659
43.06	2.08
43.28	0.004
43.5	0
43.72	0.001
43.94	13.943
44.16	0.647
44.38	0.02
44.6	4.867
44.82	0
45.04	0
45.26	0.317
45.48	19.22
45.7	0
45.92	0
46.14	0
46.36	0
46.58	0
46.8	0.028
47.02	9.422
47.24	0
47.46	0
47.68	0
47.9	0
48.12	0.001
48.34	2.092
48.56	0
48.78	0
49	0
49.22	2.662
49.44	0.059
49.66	7.015
49.88	0.139
50.1	0
50.32	14.28
50.54	0.564
50.76	0
50.98	0
51.2	0
51.42	0.004
51.64	0.608
51.86	0
52.08	0
52.3	0
52.52	0
52.74	0
52.96	0.001
53.18	0.875
53.4	3.704
53.62	0
53.84	5.329
54.06	1.209
54.28	0
54.5	0
54.72	0
54.94	11.364
55.16	1.755
55.38	0.574
55.6	0.451
55.82	0.085
56.04	0
56.26	3.775
56.48	2.374
56.7	0
56.92	1.723
57.14	0.726
57.36	6.168
57.58	0.164
57.8	1.448
58.02	1.063
58.24	0.009
58.46	6.075
58.68	1.907
58.9	0.361
59.12	0.008
59.34	0
59.56	0
59.78	0
60	0
60.22	4.687
60.44	0.367
60.66	0.017
60.88	0.028
61.1	2.829
61.32	2.53
61.54	0.009
61.76	0
61.98	0
62.2	0
62.42	0.008
62.64	0.017
62.86	0.96
63.08	0.038
63.3	0.805
63.52	0.624
63.74	0.003
63.96	0.001
64.18	0
64.4	1.951
64.62	1.886
64.84	0
65.06	0.113
65.28	0.015
65.5	2.054
65.72	0.393
65.94	0.01
66.16	0.164
66.38	4.155
66.6	2.769
66.82	0
67.04	0
67.26	0
67.48	0.305
67.7	0.389
67.92	0.1
68.14	0.498
68.36	2.054
68.58	0.462
68.8	0
69.02	0
69.24	0
69.46	0.26
69.68	0.057
69.9	0.009
70.12	0.019
70.34	0.16
70.56	0.109
70.78	0.003
71	0.229
71.22	0.334
71.44	0.186
71.66	0.45
71.88	0.136
72.1	3.117
72.32	2.565
72.54	0.45
72.76	0.132
72.98	0
73.2	0
73.42	1.076
73.64	0.646
73.86	0
74.08	0
74.3	0
74.52	2.867
74.74	1.266
74.96	0
75.18	0
75.4	0
75.62	0
75.84	0
76.06	0.079
76.28	1.541
76.5	0.864
76.72	0
76.94	0.631
77.16	0.298
77.38	0.389
77.6	2.657
77.82	1.671
78.04	0.074
78.26	0.002
78.48	0.361
78.7	0.122
78.92	1.453
79.14	1.204
79.36	0.439
79.58	0.172
79.8	1.534
80.02	1.724
80.24	1.016
80.46	0.607
80.68	0
80.9	1.594
81.12	1.479
81.34	0.845
81.56	0.243
81.78	0.794
82	1.97
82.22	0.681
82.44	2.477
82.66	0.578
82.88	0.643
83.1	1.439
83.32	0.93
83.54	0
83.76	0
83.98	0.691
84.2	1.546
84.42	0.354
84.64	0
84.86	0
85.08	0
85.3	0.242
85.52	0.048
85.74	0.052
85.96	0.007
86.18	1.925
86.4	0.901
86.62	0
86.84	0.003
87.06	0.002
87.28	0.012
87.5	0.949
87.72	0.678
87.94	0.972
88.16	0.065
88.38	0.004
88.6	0.001
88.82	0.01
89.04	0.224
89.26	0.828
89.48	0.001
89.7	0.002
89.92	0
