Measurement: Powder, Xray Data XY Processed
Mineral: Andalusite
Rruff sample: R050258
Ideal chemistry: Al_2_SiO_5_
Locality: Bautista Canyon, near Hemet, Riverside County, California, USA
Source: Marcus Origlieri
Description: Brown fragment
Diffraction sample description: Powder
Measured chemistry: Al_2.00_Si_1.00_O_5_
Cell parameters: a: 7.7931(3) b: 7.8963(5) c: 5.5549(8) alpha: 90 beta: 90 gamma: 90 volume: 341.83(4) crystal system: orthorhombic
x	intensity
5	0
5.22	13.8375
5.44	0.637547
5.66	9.67831
5.88	10.5122
6.1	0.124958
6.32	11.4305
6.54	7.08205
6.76	9.7247
6.98	4.40993
7.2	5.79261
7.42	13.2145
7.64	1.968
7.86	4.58725
8.08	2.96584
8.3	4.47663
8.52	13.9196
8.74	1.43921
8.96	5.43645
9.18	4.64006
9.4	6.67657
9.62	2.95151
9.84	6.28365
10.06	8.28487
10.28	4.57868
10.5	4.79979
10.72	7.40137
10.94	8.5245
11.16	3.76604
11.38	12.4937
11.6	12.5382
11.82	10.5111
12.04	5.43346
12.26	8.34792
12.48	5.52213
12.7	10.2219
12.92	0.113169
13.14	5.78921
13.36	4.83195
13.58	0.364928
13.8	2.77691
14.02	7.55209
14.24	7.0038
14.46	29.991
14.68	6.96662
14.9	8.66033
15.12	12.4257
15.34	10.1592
15.56	11.7159
15.78	9.69765
16	1557.48
16.22	31.7072
16.44	9.06903
16.66	7.56657
16.88	3.86205
17.1	10.2845
17.32	0.317223
17.54	7.16285
17.76	1.38987
17.98	11.7541
18.2	2.17116
18.42	0.047541
18.64	2.02234
18.86	7.09489
19.08	6.1495
19.3	9.18275
19.52	119.015
19.74	201.155
19.96	7.9899
20.18	3.03755
20.4	2.79099
20.62	9.7471
20.84	3.08725
21.06	3.24613
21.28	5.36767
21.5	8.50644
21.72	5.37117
21.94	0.754917
22.16	2.9871
22.38	10.277
22.6	65.6688
22.82	41.8832
23.04	14.4024
23.26	10.0378
23.48	6.03855
23.7	3.20169
23.92	0.822678
24.14	7.11587
24.36	12.0944
24.58	7.96643
24.8	6.56894
25.02	11.4627
25.24	60.2448
25.46	80.3567
25.68	18.6128
25.9	3.94516
26.12	0.800679
26.34	1.47913
26.56	4.99484
26.78	2.34496
27	1.06383
27.22	8.13871
27.44	1.68364
27.66	3.33701
27.88	10.3322
28.1	12.3934
28.32	5.03571
28.54	8.04745
28.76	2.88515
28.98	5.80819
29.2	6.40619
29.42	9.36108
29.64	3.3221
29.86	6.21594
30.08	1.5124
30.3	2.39869
30.52	3.363
30.74	6.18622
30.96	2.90304
31.18	3.73784
31.4	10.3689
31.62	3.27795
31.84	8.17462
32.06	16.2376
32.28	752.364
32.5	39.3715
32.72	13.4805
32.94	2.68031
33.16	1.0021
33.38	0.890532
33.6	6.62245
33.82	1.68384
34.04	0.619987
34.26	6.34525
34.48	3.89075
34.7	3.58163
34.92	6.03194
35.14	10.7405
35.36	9.22743
35.58	0.973294
35.8	3.74982
36.02	38.6691
36.24	109.787
36.46	175.745
36.68	10.8302
36.9	6.83915
37.12	7.95423
37.34	2.87565
37.56	7.46356
37.78	22.8013
38	10.3833
38.22	29.7089
38.44	10.4858
38.66	3.31494
38.88	9.34576
39.1	5.48641
39.32	3.34336
39.54	25.4545
39.76	82.4733
39.98	211.161
40.2	7.62404
40.42	2.07268
40.64	3.55569
40.86	5.43463
41.08	1.57444
41.3	14.6717
41.52	247.663
41.74	133.934
41.96	20.2797
42.18	0.427224
42.4	9.66037
42.62	6.10714
42.84	3.57658
43.06	6.1469
43.28	11.4381
43.5	16.7173
43.72	9.67793
43.94	4.7647
44.16	10.6521
44.38	0.220558
44.6	7.80709
44.82	0.21834
45.04	3.62392
45.26	6.49032
45.48	8.15605
45.7	0.122411
45.92	21.4056
46.14	18.5111
46.36	2.41276
46.58	13.2437
46.8	13.98
47.02	4.84624
47.24	1.01893
47.46	9.07242
47.68	0.118943
47.9	7.06534
48.12	23.9503
48.34	4.46495
48.56	3.23732
48.78	8.45825
49	5.65974
49.22	20.4883
49.44	6.41886
49.66	3.19314
49.88	3.97957
50.1	4.75599
50.32	10.9299
50.54	30.1661
50.76	21.2484
50.98	38.2814
51.2	8.10027
51.42	5.02876
51.64	0.218338
51.86	5.89643
52.08	20.0882
52.3	21.3256
52.52	1.60282
52.74	9.73573
52.96	0.008588
53.18	2.21088
53.4	16.7888
53.62	5.9745
53.84	5.04453
54.06	2.83041
54.28	5.76273
54.5	2.14017
54.72	7.24883
54.94	5.39313
55.16	4.19289
55.38	7.85305
55.6	9.78136
55.82	2.582
56.04	12.4111
56.26	3.23222
56.48	5.08544
56.7	4.8154
56.92	0.466343
57.14	7.57277
57.36	15.5899
57.58	13.8383
57.8	58.8892
58.02	17.8741
58.24	1.77173
58.46	1.83048
58.68	6.75043
58.9	10.6487
59.12	5.46321
59.34	7.14782
59.56	3.43143
59.78	15.2884
60	7.34364
60.22	24.5143
60.44	18.686
60.66	20.6578
60.88	0.852193
61.1	4.07423
61.32	20.2894
61.54	12.6573
61.76	7.27607
61.98	14.1103
62.2	23.924
62.42	178.44
62.64	78.9063
62.86	43.3212
63.08	43.3583
63.3	11.2686
63.52	23.5347
63.74	13.7879
63.96	2.9376
64.18	2.83154
64.4	3.66141
64.62	8.66255
64.84	1.12214
65.06	3.16623
65.28	0.885772
65.5	1.69506
65.72	6.68585
65.94	3.70819
66.16	7.35946
66.38	8.05005
66.6	4.85568
66.82	3.64221
67.04	0.47528
67.26	9.80516
67.48	67.6211
67.7	44.8111
67.92	11.8094
68.14	8.54917
68.36	7.34811
68.58	8.44835
68.8	4.69727
69.02	4.76293
69.24	0.938945
69.46	10.2078
69.68	2.02632
69.9	9.44581
70.12	3.364
70.34	3.63484
70.56	5.92002
70.78	3.99894
71	4.02866
71.22	6.66084
71.44	6.42816
71.66	7.10888
71.88	8.59454
72.1	4.12314
72.32	1.52253
72.54	8.21176
72.76	5.79289
72.98	7.33533
73.2	13.422
73.42	4.33426
73.64	20.2496
73.86	19.6423
74.08	1.03137
74.3	8.79314
74.52	3.30889
74.74	3.88529
74.96	4.14938
75.18	2.39451
75.4	0.512757
75.62	3.2873
75.84	10.2117
76.06	2.45858
76.28	11.2794
76.5	6.03081
76.72	27.987
76.94	24.2117
77.16	12.2744
77.38	17.5157
77.6	10.7873
77.82	6.8977
78.04	1.98357
78.26	8.01023
78.48	2.95732
78.7	11.3558
78.92	6.39822
79.14	10.919
79.36	16.494
79.58	22.8871
79.8	6.56516
80.02	11.0605
80.24	17.3257
80.46	14.3389
80.68	10.2869
80.9	44.3319
81.12	8.94635
81.34	2.0774
81.56	5.27379
81.78	5.71851
82	13.1337
82.22	9.46156
82.44	5.88846
82.66	5.93008
82.88	5.10612
83.1	7.62657
83.32	4.20689
83.54	3.44625
83.76	0.434341
83.98	8.54758
84.2	0.35551
84.42	2.6678
84.64	11.7287
84.86	1.70105
85.08	3.94832
85.3	8.96521
85.52	1.02234
85.74	6.71059
85.96	1.71731
86.18	9.73504
86.4	2.76369
86.62	6.54923
86.84	3.66554
87.06	7.75828
87.28	16.7248
87.5	5.65873
87.72	5.76713
87.94	3.63179
88.16	1.28758
88.38	6.83732
88.6	6.85848
88.82	11.8818
89.04	7.94778
89.26	10.9694
89.48	6.74444
89.7	10.836
89.92	2.07212
