Measurement: Powder, Xray Data XY Processed
Mineral: Andalusite
Rruff sample: R050449
Ideal chemistry: Al_2_SiO_5_
Locality: Itinga, Minas Gerais, Brazil
Source: Marcus Origlieri
Description: Green fragment
Diffraction sample description: Powder
Measured chemistry: Al_2.00_Fe^3+^_0.01_Si_0.99_O_5_
Cell parameters: a: 7.7955(3) b: 7.8992(4) c: 5.5560(3) alpha: 90. beta: 90. gamma: 90. volume: 342.13(2) crystal system: orthorhombic
x	intensity
5	0
5.22	14.9608
5.44	12.7641
5.66	11.8079
5.88	13.6026
6.1	2.6751
6.32	8.81224
6.54	5.31908
6.76	3.82089
6.98	8.52459
7.2	0.110273
7.42	3.27489
7.64	4.95505
7.86	4.60991
8.08	9.53796
8.3	1.18275
8.52	5.85783
8.74	7.68843
8.96	1.43007
9.18	6.65937
9.4	4.6409
9.62	8.06389
9.84	1.2829
10.06	2.44436
10.28	9.62156
10.5	9.44605
10.72	7.98482
10.94	14.0131
11.16	9.71828
11.38	4.31036
11.6	5.74506
11.82	1.42513
12.04	9.44172
12.26	4.31167
12.48	8.21651
12.7	8.29775
12.92	7.9232
13.14	4.09897
13.36	2.96394
13.58	1.22156
13.8	15.5397
14.02	7.14031
14.24	0.866977
14.46	11.0108
14.68	9.95291
14.9	9.85418
15.12	6.52441
15.34	9.62938
15.56	1.25066
15.78	34.2428
16	885.983
16.22	19.7109
16.44	6.99737
16.66	6.32943
16.88	3.87221
17.1	4.23329
17.32	3.77652
17.54	5.35897
17.76	6.42591
17.98	9.81417
18.2	2.99137
18.42	9.11427
18.64	8.01503
18.86	12.9467
19.08	8.73029
19.3	17.8442
19.52	275.028
19.74	74.5703
19.96	10.5629
20.18	2.6517
20.4	9.71774
20.62	5.71146
20.84	1.75785
21.06	8.35389
21.28	2.26942
21.5	2.20692
21.72	0.763567
21.94	0.836431
22.16	5.23508
22.38	4.29565
22.6	135.073
22.82	72.4442
23.04	7.70287
23.26	0.04036
23.48	9.41681
23.7	5.47693
23.92	1.34116
24.14	0.645237
24.36	6.59836
24.58	6.2249
24.8	5.37949
25.02	7.38242
25.24	137.168
25.46	176.053
25.68	22.1043
25.9	8.22628
26.12	1.5333
26.34	11.6246
26.56	6.80238
26.78	4.03364
27	5.33559
27.22	7.3837
27.44	2.689
27.66	4.77918
27.88	0.018155
28.1	0.115173
28.32	9.08802
28.54	1.74342
28.76	8.36791
28.98	7.53707
29.2	11.5796
29.42	6.88744
29.64	1.71973
29.86	10.9764
30.08	3.85581
30.3	8.70362
30.52	5.58152
30.74	5.44285
30.96	7.98607
31.18	6.50042
31.4	11.0612
31.62	3.7456
31.84	9.10542
32.06	31.9024
32.28	807.215
32.5	19.4505
32.72	4.54087
32.94	7.84407
33.16	5.89744
33.38	4.40158
33.6	0.411399
33.82	1.75865
34.04	4.19063
34.26	5.33706
34.48	6.3649
34.7	4.18709
34.92	4.82495
35.14	13.3075
35.36	3.87807
35.58	1.82459
35.8	2.5882
36.02	40.5737
36.24	99.0862
36.46	149.99
36.68	7.86743
36.9	4.79295
37.12	1.84521
37.34	0.908017
37.56	4.24776
37.78	86.8713
38	11.7129
38.22	45.9539
38.44	5.94243
38.66	1.95336
38.88	0.846761
39.1	7.15148
39.32	4.49147
39.54	74.6746
39.76	105.624
39.98	184.41
40.2	13.8472
40.42	0.800123
40.64	0.689466
40.86	4.24486
41.08	0.757499
41.3	46.5565
41.52	152.994
41.74	64.9189
41.96	8.08974
42.18	0.328719
42.4	0.501981
42.62	3.90862
42.84	8.33944
43.06	12.6033
43.28	4.18802
43.5	18.439
43.72	6.68563
43.94	7.55513
44.16	1.59113
44.38	7.45778
44.6	0.763205
44.82	8.66354
45.04	4.43694
45.26	0.170909
45.48	8.99418
45.7	6.45243
45.92	37.5317
46.14	9.35223
46.36	1.99927
46.58	38.8421
46.8	3.48674
47.02	2.24966
47.24	3.09886
47.46	3.03536
47.68	8.1442
47.9	8.20547
48.12	14.1528
48.34	6.95167
48.56	1.76992
48.78	4.02266
49	25.1762
49.22	20.0497
49.44	9.01127
49.66	0.008666
49.88	8.66984
50.1	7.52438
50.32	14.456
50.54	42.8075
50.76	20.741
50.98	556.549
51.2	9.36444
51.42	0.770463
51.64	0.501524
51.86	4.07978
52.08	68.536
52.3	6.80948
52.52	6.34824
52.74	5.79501
52.96	9.83934
53.18	1.94354
53.4	12.2126
53.62	4.38937
53.84	4.61554
54.06	8.62628
54.28	2.30897
54.5	7.42628
54.72	8.57875
54.94	4.56735
55.16	3.36952
55.38	3.55506
55.6	3.83807
55.82	6.94186
56.04	6.89367
56.26	6.68782
56.48	4.65344
56.7	5.45852
56.92	6.33129
57.14	20.3043
57.36	66.0124
57.58	9.57367
57.8	45.3814
58.02	5.91831
58.24	5.13135
58.46	11.1161
58.68	5.86253
58.9	2.46937
59.12	3.99423
59.34	5.52561
59.56	4.81279
59.78	7.53263
60	27.3519
60.22	34.3944
60.44	18.5116
60.66	22.3926
60.88	0.623184
61.1	1.87642
61.32	2.27203
61.54	7.84417
61.76	0.569139
61.98	3.4606
62.2	51.8566
62.42	140.418
62.64	47.1157
62.86	28.6245
63.08	31.5188
63.3	6.45151
63.52	25.8772
63.74	4.17266
63.96	1.75809
64.18	7.5206
64.4	1.4822
64.62	5.16348
64.84	0.631922
65.06	3.9217
65.28	4.45974
65.5	13.5426
65.72	14.8583
65.94	2.40189
66.16	1.01476
66.38	6.59626
66.6	3.13602
66.82	3.068
67.04	6.70762
67.26	17.5126
67.48	105.336
67.7	42.448
67.92	6.13344
68.14	9.09816
68.36	4.11518
68.58	4.14409
68.8	0.821685
69.02	6.1557
69.24	1.999
69.46	6.90703
69.68	6.81819
69.9	13.723
70.12	4.53196
70.34	3.84801
70.56	7.00604
70.78	8.10952
71	2.97342
71.22	8.92112
71.44	7.88949
71.66	1.26309
71.88	3.52809
72.1	8.33615
72.32	7.02837
72.54	9.82091
72.76	4.22314
72.98	63.0087
73.2	38.2286
73.42	9.78159
73.64	53.9973
73.86	19.3293
74.08	0.884027
74.3	8.6876
74.52	2.53064
74.74	2.07022
74.96	7.80802
75.18	8.08709
75.4	9.16769
75.62	1.99348
75.84	1.62223
76.06	7.51051
76.28	44.3317
76.5	31.0358
76.72	36.7623
76.94	36.2131
77.16	10.3398
77.38	11.8664
77.6	10.7285
77.82	6.59463
78.04	9.47188
78.26	0.525799
78.48	1.61417
78.7	10.9349
78.92	14.6153
79.14	18.4009
79.36	5.07551
79.58	0.406046
79.8	0.353106
80.02	7.45915
80.24	5.71371
80.46	12.5863
80.68	6.37073
80.9	19.1797
81.12	16.7885
81.34	2.02114
81.56	16.1981
81.78	22.6354
82	21.2643
82.22	13.825
82.44	1.12618
82.66	0.579162
82.88	2.17313
83.1	4.65083
83.32	6.01255
83.54	2.38346
83.76	0.282044
83.98	2.91507
84.2	6.90549
84.42	3.6361
84.64	1.39994
84.86	9.11502
85.08	3.83502
85.3	0.778409
85.52	1.72239
85.74	2.68742
85.96	0.796554
86.18	0.287284
86.4	1.70945
86.62	1.02669
86.84	3.12548
87.06	15.2866
87.28	5.43206
87.5	1.59114
87.72	7.83266
87.94	9.93229
88.16	4.02543
88.38	3.95514
88.6	2.04627
88.82	2.63784
89.04	3.67133
89.26	4.70163
89.48	8.1622
89.7	6.84409
89.92	1.16405
