Measurement: Powder, Xray Data XY Processed
Mineral: Andalusite
Rruff sample: R050561
Ideal chemistry: Al_2_SiO_5_
Locality: Cargo Muchacho Mountain, Imperial County, California
Source: Dave Bunk Minerals
Description: Brown coarsely crystalline massive
Diffraction sample description: Powder
Measured chemistry: (Al_1.98_Fe^3+^_0.02_)_Î£=2_Si_1.00_O_5_
Cell parameters: a: 7.7959(2) b: 7.9012(2) c: 5.5595(5) alpha: 90 beta: 90 gamma: 90 volume: 342.45(3) crystal system: orthorhombic
x	intensity
5	0
5.22	8.56807
5.44	6.27333
5.66	12.4544
5.88	15.1002
6.1	21.681
6.32	3.33064
6.54	11.2542
6.76	10.6219
6.98	13.3164
7.2	4.85312
7.42	16.0511
7.64	10.4518
7.86	14.5667
8.08	4.93469
8.3	1.837
8.52	2.43521
8.74	4.57031
8.96	9.78337
9.18	5.27378
9.4	8.18966
9.62	2.60088
9.84	2.95107
10.06	11.2164
10.28	15.4376
10.5	0.454168
10.72	1.67447
10.94	1.67677
11.16	12.5053
11.38	13.0437
11.6	2.62361
11.82	3.52492
12.04	10.9586
12.26	0.759527
12.48	3.54796
12.7	3.36545
12.92	7.46112
13.14	0.691877
13.36	12.7207
13.58	3.83983
13.8	6.37864
14.02	4.9368
14.24	4.17921
14.46	20.3318
14.68	3.36014
14.9	13.0586
15.12	16.9866
15.34	0.898116
15.56	15.5378
15.78	13.1769
16	1496.28
16.22	23.1899
16.44	10.9603
16.66	7.83982
16.88	10.9615
17.1	4.24818
17.32	7.57099
17.54	1.1847
17.76	8.5408
17.98	14.7592
18.2	2.87985
18.42	4.69102
18.64	9.41652
18.86	0.538938
19.08	3.92398
19.3	6.80419
19.52	269.023
19.74	54.9143
19.96	10.7081
20.18	19.887
20.4	5.95824
20.62	16.5978
20.84	16.6077
21.06	0.307658
21.28	14.6403
21.5	4.30232
21.72	12.3715
21.94	4.05059
22.16	10.2336
22.38	2.50996
22.6	93.5045
22.82	43.7644
23.04	7.82967
23.26	4.63473
23.48	8.17181
23.7	11.3903
23.92	5.46354
24.14	11.5189
24.36	14.5207
24.58	1.14817
24.8	16.8371
25.02	9.31897
25.24	122.453
25.46	165.004
25.68	11.2677
25.9	5.87895
26.12	17.8611
26.34	5.14049
26.56	15.2894
26.78	18.1984
27	14.4111
27.22	11.7832
27.44	10.2734
27.66	4.00842
27.88	1.33727
28.1	6.4078
28.32	0.448559
28.54	9.58465
28.76	5.4772
28.98	7.48172
29.2	8.86771
29.42	9.15417
29.64	2.69973
29.86	5.08971
30.08	12.9541
30.3	3.87493
30.52	3.95274
30.74	3.70663
30.96	5.4017
31.18	6.08876
31.4	9.8162
31.62	6.47626
31.84	17.9025
32.06	22.7429
32.28	1231.93
32.5	23.2269
32.72	15.4288
32.94	5.73628
33.16	1.60812
33.38	3.17411
33.6	4.38259
33.82	7.6238
34.04	8.80083
34.26	10.9462
34.48	3.21506
34.7	2.99987
34.92	5.5789
35.14	5.18817
35.36	6.55675
35.58	2.09901
35.8	12.0103
36.02	33.7421
36.24	118.516
36.46	113.383
36.68	6.96196
36.9	3.7771
37.12	11.7405
37.34	12.2617
37.56	14.8525
37.78	194.343
38	7.76618
38.22	49.1583
38.44	7.10443
38.66	7.08568
38.88	1.96696
39.1	2.25467
39.32	4.44922
39.54	61.3047
39.76	39.7536
39.98	66.3821
40.2	4.78045
40.42	7.42272
40.64	8.38703
40.86	0.459787
41.08	3.86721
41.3	18.0953
41.52	292.467
41.74	64.8348
41.96	0.542175
42.18	2.32897
42.4	1.73045
42.62	13.4342
42.84	4.99784
43.06	5.45819
43.28	3.71382
43.5	12.6859
43.72	5.87563
43.94	6.05141
44.16	4.77031
44.38	3.60239
44.6	8.81437
44.82	11.8455
45.04	7.5561
45.26	7.36743
45.48	2.13957
45.7	9.0139
45.92	70.129
46.14	18.1368
46.36	3.67848
46.58	31.0477
46.8	8.57468
47.02	0.698443
47.24	4.47801
47.46	15.2192
47.68	8.47857
47.9	15.4365
48.12	17.3013
48.34	1.10225
48.56	4.70511
48.78	7.86222
49	11.9049
49.22	9.95014
49.44	4.86707
49.66	6.57251
49.88	5.55626
50.1	11.3925
50.32	19.7885
50.54	33.6381
50.76	20.8063
50.98	40.9727
51.2	1.83696
51.42	5.13801
51.64	6.68092
51.86	7.08805
52.08	52.7082
52.3	6.93742
52.52	10.1794
52.74	2.38947
52.96	5.92733
53.18	17.0755
53.4	12.1687
53.62	3.22338
53.84	8.40887
54.06	6.32931
54.28	6.37649
54.5	7.28183
54.72	4.38412
54.94	0.250744
55.16	12.9094
55.38	7.77958
55.6	5.64659
55.82	10.5489
56.04	1.40512
56.26	0.372857
56.48	4.17195
56.7	7.96322
56.92	3.77028
57.14	10.1476
57.36	16.4974
57.58	18.104
57.8	30.2415
58.02	8.54891
58.24	12.6151
58.46	4.6315
58.68	1.4386
58.9	5.11689
59.12	2.91932
59.34	9.10422
59.56	2.48452
59.78	4.77607
60	40.8125
60.22	44.0297
60.44	14.0776
60.66	20.2251
60.88	1.21249
61.1	7.48428
61.32	2.00616
61.54	3.45928
61.76	7.29827
61.98	1.8163
62.2	48.9562
62.42	79.1904
62.64	37.7458
62.86	23.5831
63.08	17.4821
63.3	7.64073
63.52	8.71652
63.74	6.84117
63.96	1.14202
64.18	8.9682
64.4	9.738
64.62	4.57852
64.84	6.74792
65.06	8.11889
65.28	5.18195
65.5	5.01686
65.72	2.92077
65.94	8.50528
66.16	2.95561
66.38	6.11479
66.6	4.67788
66.82	0.394764
67.04	0.893873
67.26	14.6626
67.48	122.177
67.7	34.1883
67.92	0.696901
68.14	14.0052
68.36	16.2119
68.58	4.42
68.8	1.24378
69.02	0.987451
69.24	7.01445
69.46	9.33467
69.68	10.824
69.9	5.0145
70.12	12.8699
70.34	10.4619
70.56	0.887278
70.78	1.76489
71	6.52563
71.22	6.1854
71.44	7.02721
71.66	7.81843
71.88	8.26575
72.1	13.5206
72.32	14.9591
72.54	5.45998
72.76	12.3591
72.98	83.8233
73.2	45.7774
73.42	10.2314
73.64	38.0441
73.86	33.4434
74.08	7.06886
74.3	3.99134
74.52	3.69496
74.74	5.93174
74.96	6.08935
75.18	2.18188
75.4	4.15799
75.62	9.95972
75.84	4.56959
76.06	4.9493
76.28	28.3545
76.5	8.85317
76.72	42.516
76.94	31.5422
77.16	5.51119
77.38	7.43153
77.6	0.524527
77.82	2.30192
78.04	8.8211
78.26	2.09506
78.48	4.01251
78.7	7.53971
78.92	8.72646
79.14	4.45571
79.36	7.02156
79.58	1.90832
79.8	2.9351
80.02	6.2165
80.24	5.00055
80.46	16.9484
80.68	14.7721
80.9	1.15707
81.12	9.40412
81.34	1.56201
81.56	2.01829
81.78	40.6068
82	23.9567
82.22	2.1948
82.44	7.76773
82.66	13.2581
82.88	0.306852
83.1	5.43788
83.32	1.16361
83.54	1.08219
83.76	7.2982
83.98	5.29315
84.2	7.22399
84.42	1.34006
84.64	5.11801
84.86	4.94084
85.08	2.87364
85.3	5.0422
85.52	5.70011
85.74	9.56551
85.96	4.56187
86.18	4.64985
86.4	1.60789
86.62	5.40548
86.84	13.7643
87.06	5.04185
87.28	11.0935
87.5	7.16461
87.72	9.05278
87.94	4.03134
88.16	5.25861
88.38	7.1199
88.6	11.0914
88.82	4.97884
89.04	3.60959
89.26	4.37332
89.48	6.20846
89.7	1.55448
89.92	8.62287
