Measurement: Powder, Xray Data XY Processed
Mineral: Andalusite
Rruff sample: R060212
Ideal chemistry: Al_2_SiO_5_
Locality: Brazil
Source: Marcus Origlieri
Description: Transparent yellow-green water-worn pebble
Diffraction sample description: Single crystal, powder profile is calculated
Measured chemistry: (Al_1.98_Fe^3+^_0.02_)_Î£=2_Si_1.00_O_5_
Cell parameters: a: 7.804(2) b: 7.905(2) c: 5.558(2) alpha: 90 beta: 90 gamma: 90 volume: 342.8(4) crystal system: orthorhombic
x	intensity
5	0
5.22	0
5.44	0
5.66	0
5.88	0
6.1	0
6.32	0
6.54	0
6.76	0
6.98	0
7.2	0
7.42	0
7.64	0
7.86	0
8.08	0
8.3	0
8.52	0
8.74	0
8.96	0
9.18	0
9.4	0
9.62	0
9.84	0
10.06	0
10.28	0
10.5	0
10.72	0
10.94	0
11.16	0
11.38	0
11.6	0
11.82	0
12.04	0
12.26	0
12.48	0
12.7	0
12.92	0
13.14	0
13.36	0
13.58	0
13.8	0
14.02	0
14.24	0
14.46	0
14.68	0
14.9	0
15.12	0
15.34	0
15.56	0
15.78	0
16	45.44
16.22	0
16.44	0
16.66	0
16.88	0
17.1	0
17.32	0
17.54	0
17.76	0
17.98	0
18.2	0
18.42	0
18.64	0
18.86	0
19.08	0
19.3	0
19.52	64.755
19.74	0.098
19.96	0
20.18	0
20.4	0
20.62	0
20.84	0
21.06	0
21.28	0
21.5	0
21.72	0
21.94	0
22.16	0
22.38	0.011
22.6	37.732
22.82	2.415
23.04	0
23.26	0
23.48	0
23.7	0
23.92	0
24.14	0
24.36	0
24.58	0
24.8	0
25.02	0
25.24	24.757
25.46	17.172
25.68	0
25.9	0
26.12	0
26.34	0
26.56	0
26.78	0
27	0
27.22	0
27.44	0
27.66	0
27.88	0
28.1	0
28.32	0
28.54	0
28.76	0
28.98	0
29.2	0
29.42	0
29.64	0
29.86	0
30.08	0.055
30.3	0.012
30.52	0
30.74	0
30.96	0
31.18	0
31.4	0
31.62	0
31.84	0
32.06	0.006
32.28	35.421
32.5	0
32.72	0
32.94	0
33.16	0
33.38	0
33.6	0
33.82	0
34.04	0
34.26	0
34.48	0
34.7	0
34.92	0
35.14	0
35.36	0
35.58	0
35.8	0
36.02	2.27
36.24	7.952
36.46	3.929
36.68	0
36.9	0
37.12	0
37.34	0
37.56	0
37.78	5.731
38	0
38.22	3.155
38.44	0
38.66	0
38.88	0
39.1	0
39.32	0
39.54	14.754
39.76	4.853
39.98	8.665
40.2	0
40.42	0
40.64	0
40.86	0
41.08	0
41.3	11.435
41.52	28.491
41.74	0.047
41.96	0
42.18	0
42.4	0
42.62	0
42.84	0
43.06	0
43.28	0
43.5	0
43.72	0
43.94	0
44.16	0
44.38	0
44.6	0.015
44.82	0.1
45.04	0
45.26	0
45.48	0
45.7	0
45.92	2.267
46.14	0.039
46.36	0.007
46.58	0.628
46.8	0
47.02	0
47.24	0
47.46	0.368
47.68	0
47.9	0.075
48.12	1.663
48.34	0
48.56	0
48.78	0
49	5.332
49.22	0.477
49.44	0.001
49.66	0
49.88	0
50.1	0
50.32	3.776
50.54	5.026
50.76	1.317
50.98	1.39
51.2	0
51.42	0
51.64	0
51.86	0.102
52.08	2.407
52.3	0.005
52.52	0
52.74	0
52.96	0
53.18	0.001
53.4	0.361
53.62	0.04
53.84	0
54.06	0
54.28	0
54.5	0.27
54.72	0.813
54.94	0.281
55.16	0.21
55.38	0
55.6	0
55.82	0
56.04	0.102
56.26	0.015
56.48	0
56.7	0
56.92	0
57.14	2.672
57.36	0.4
57.58	0.105
57.8	2.56
58.02	0
58.24	0
58.46	0.001
58.68	0.001
58.9	0.107
59.12	0.085
59.34	0
59.56	0.479
59.78	1.066
60	13.503
60.22	1.912
60.44	2.626
60.66	0.105
60.88	0.798
61.1	2.07
61.32	1.834
61.54	1.739
61.76	0.105
61.98	0.001
62.2	2.137
62.42	4.107
62.64	4.635
62.86	6.824
63.08	3.486
63.3	0.003
63.52	0.226
63.74	0.002
63.96	0
64.18	0.043
64.4	0.001
64.62	0
64.84	0
65.06	0
65.28	0
65.5	0
65.72	0
65.94	0.022
66.16	0.035
66.38	0.002
66.6	0.003
66.82	0
67.04	0
67.26	1.559
67.48	3.729
67.7	0.036
67.92	0
68.14	0
68.36	0.007
68.58	0.024
68.8	0.005
69.02	0
69.24	0
69.46	0.212
69.68	1.068
69.9	0.599
70.12	1.698
70.34	0.654
70.56	0.014
70.78	0.067
71	0.007
71.22	0.038
71.44	0.007
71.66	0.009
71.88	0.204
72.1	1.642
72.32	1.18
72.54	0.389
72.76	0.651
72.98	2.06
73.2	1.726
73.42	0.582
73.64	0.349
73.86	0.144
74.08	0.021
74.3	0.013
74.52	0.065
74.74	0.033
74.96	0.003
75.18	0.002
75.4	0
75.62	0
75.84	0
76.06	0.04
76.28	0.418
76.5	0.285
76.72	2.256
76.94	1.379
77.16	2.369
77.38	1.277
77.6	0.075
77.82	0.024
78.04	0.003
78.26	0.002
78.48	0.429
78.7	3.134
78.92	1.969
79.14	0.629
79.36	0.573
79.58	0.145
79.8	0.015
80.02	0.07
80.24	0.389
80.46	0.421
80.68	1.085
80.9	0.809
81.12	0.179
81.34	0.004
81.56	0.385
81.78	0.863
82	0.326
82.22	0.345
82.44	0.081
82.66	0.047
82.88	0.011
83.1	0.002
83.32	0
83.54	0
83.76	0
83.98	0
84.2	0.005
84.42	0.006
84.64	0
84.86	0.013
85.08	0.085
85.3	0.24
85.52	0.037
85.74	0.348
85.96	0.033
86.18	0.001
86.4	0.078
86.62	0.017
86.84	0.746
87.06	0.285
87.28	0.004
87.5	0.019
87.72	0.082
87.94	0.005
88.16	0.068
88.38	0.003
88.6	0.006
88.82	0.69
89.04	0.065
89.26	0.209
89.48	0.005
89.7	0.187
89.92	0.598
