Measurement: Powder, Xray Data XY Processed
Mineral: Andalusite
Rruff sample: R050626
Ideal chemistry: Al_2_SiO_5_
Locality: Minas Gerais, Brazil
Source: Gemological Center
Description: Grayish brown fragment
Diffraction sample description: Powder
Measured chemistry: (Al_1.99_Fe^3+^_0.01_)_Î£=1_Si_1.00_O_5_
Cell parameters: a: 7.7925(4) b: 7.8981(4) c: 5.556(1) alpha: 90. beta: 90. gamma: 90. volume: 341.96(7) crystal system: orthorhombic
x	intensity
5	0
5.22	9.08
5.44	2.375
5.66	10.254
5.88	12.002
6.1	9.959
6.32	10.749
6.54	4.441
6.76	4.186
6.98	9.7
7.2	12.368
7.42	7.827
7.64	10.214
7.86	10.825
8.08	8.238
8.3	8.213
8.52	3.988
8.74	8.225
8.96	14.483
9.18	11.809
9.4	6.004
9.62	9.861
9.84	8.765
10.06	2.797
10.28	9.943
10.5	2.1
10.72	4.23
10.94	2.837
11.16	6.103
11.38	1.986
11.6	11
11.82	4.941
12.04	12.767
12.26	13.052
12.48	3.032
12.7	3.885
12.92	15.649
13.14	1.82
13.36	5.835
13.58	9.18
13.8	10.343
14.02	10.707
14.24	4.211
14.46	9.198
14.68	2.166
14.9	4.719
15.12	9.453
15.34	6.239
15.56	16.003
15.78	28.856
16	1611.19
16.22	15.975
16.44	3.478
16.66	11.298
16.88	3.79
17.1	6.45
17.32	4.682
17.54	8.128
17.76	3.481
17.98	15.61
18.2	0.345
18.42	3.686
18.64	3.631
18.86	2.54
19.08	6.575
19.3	16.156
19.52	419.87
19.74	40.113
19.96	3.885
20.18	3.772
20.4	6.009
20.62	4.497
20.84	3.727
21.06	10.838
21.28	5.056
21.5	5.918
21.72	4.084
21.94	4.816
22.16	2.087
22.38	6.404
22.6	134.483
22.82	52.546
23.04	10.468
23.26	0.516
23.48	2.601
23.7	6.531
23.92	3.366
24.14	5.136
24.36	1.898
24.58	14.199
24.8	0.822
25.02	12.409
25.24	318.035
25.46	861.88
25.68	6.686
25.9	1.369
26.12	1.148
26.34	4.496
26.56	4.786
26.78	5.071
27	5.68
27.22	6.108
27.44	4.354
27.66	3.662
27.88	1.945
28.1	7.148
28.32	5.972
28.54	15.11
28.76	1.102
28.98	8.364
29.2	10.816
29.42	3.723
29.64	8.573
29.86	5.93
30.08	2.241
30.3	4.525
30.52	6.386
30.74	6.091
30.96	0.401
31.18	6.168
31.4	1.69
31.62	2.004
31.84	4.862
32.06	34.624
32.28	459.466
32.5	11.644
32.72	19.596
32.94	4.957
33.16	7.414
33.38	6.765
33.6	0.245
33.82	2.83
34.04	0.203
34.26	3.459
34.48	12.608
34.7	2.525
34.92	5.45
35.14	6.254
35.36	7.919
35.58	4.766
35.8	1.721
36.02	26.662
36.24	52.275
36.46	103.288
36.68	2.972
36.9	2.87
37.12	0.06
37.34	6.082
37.56	4.548
37.78	60.263
38	0.517
38.22	101.765
38.44	2.341
38.66	4.326
38.88	4.103
39.1	3.808
39.32	6.504
39.54	44.456
39.76	50.039
39.98	92.327
40.2	15.27
40.42	5.658
40.64	2.157
40.86	1.93
41.08	8.756
41.3	44.111
41.52	224.49
41.74	92.681
41.96	0.277
42.18	7.079
42.4	3.477
42.62	3.939
42.84	1.306
43.06	7.705
43.28	11.474
43.5	5.781
43.72	7.818
43.94	11.774
44.16	3.9
44.38	4.96
44.6	11.276
44.82	9.169
45.04	7.471
45.26	5.603
45.48	13.565
45.7	1.132
45.92	48.012
46.14	1.136
46.36	11.216
46.58	19.079
46.8	5.209
47.02	0.023
47.24	3.186
47.46	12.883
47.68	5.218
47.9	3.197
48.12	19.165
48.34	6.154
48.56	4.095
48.78	4.979
49	9.977
49.22	26.902
49.44	0.85
49.66	1.609
49.88	5.572
50.1	2.213
50.32	13.558
50.54	12.749
50.76	10.759
50.98	28.774
51.2	5.848
51.42	9.099
51.64	5.617
51.86	8.115
52.08	170.493
52.3	5.743
52.52	2.909
52.74	3.776
52.96	9.05
53.18	1.395
53.4	5.437
53.62	11.455
53.84	7.127
54.06	0.964
54.28	2.804
54.5	2.699
54.72	2.688
54.94	4.765
55.16	4.949
55.38	2.947
55.6	7.907
55.82	12.285
56.04	1.338
56.26	3.382
56.48	5.436
56.7	1.363
56.92	9.39
57.14	8.475
57.36	4.533
57.58	8.694
57.8	28.714
58.02	8.293
58.24	4.593
58.46	0.512
58.68	2.188
58.9	3.782
59.12	8.3
59.34	0.377
59.56	1.968
59.78	11.454
60	23.801
60.22	37.938
60.44	15.549
60.66	25.418
60.88	3.464
61.1	6.204
61.32	7.896
61.54	3.68
61.76	12.613
61.98	9.457
62.2	48.567
62.42	58.461
62.64	27.669
62.86	27.77
63.08	20.822
63.3	3.545
63.52	16.231
63.74	2.938
63.96	0.005
64.18	11.532
64.4	3.131
64.62	4.689
64.84	3.149
65.06	6.584
65.28	8.88
65.5	0.957
65.72	3.776
65.94	7.768
66.16	3.516
66.38	3.189
66.6	6.184
66.82	2.08
67.04	4.083
67.26	8.225
67.48	167.191
67.7	52.731
67.92	0.255
68.14	4.892
68.36	6.017
68.58	7.099
68.8	2.262
69.02	7.246
69.24	6.178
69.46	10.311
69.68	5.112
69.9	0.037
70.12	10.653
70.34	12.992
70.56	6.154
70.78	7.224
71	6.12
71.22	10.138
71.44	4.037
71.66	6.849
71.88	3.527
72.1	10.254
72.32	2.118
72.54	1.745
72.76	8.151
72.98	55.658
73.2	29.467
73.42	5.903
73.64	134.917
73.86	63.301
74.08	6.787
74.3	5.393
74.52	3.068
74.74	4.287
74.96	8.899
75.18	2.149
75.4	3.248
75.62	0.156
75.84	5.78
76.06	4.689
76.28	14.388
76.5	7.181
76.72	24.779
76.94	13.359
77.16	3.25
77.38	7.274
77.6	1.693
77.82	3.32
78.04	8.384
78.26	0.966
78.48	5.04
78.7	2.203
78.92	7.25
79.14	16.205
79.36	2.193
79.58	6.023
79.8	8.488
80.02	0.733
80.24	11.192
80.46	13.015
80.68	6.372
80.9	16.23
81.12	5.075
81.34	0.155
81.56	16.478
81.78	33.681
82	14.034
82.22	4.595
82.44	1.051
82.66	3.359
82.88	0.196
83.1	5.318
83.32	3.689
83.54	3.168
83.76	7.239
83.98	3.479
84.2	3.691
84.42	7.016
84.64	5.982
84.86	2.128
85.08	7.122
85.3	5.106
85.52	3.218
85.74	5.167
85.96	2.045
86.18	3.895
86.4	4.757
86.62	0.394
86.84	10.628
87.06	3.601
87.28	3.579
87.5	4.535
87.72	2.377
87.94	9.4
88.16	6.459
88.38	5.631
88.6	9.808
88.82	2.984
89.04	1.991
89.26	3.121
89.48	2.408
89.7	9.613
89.92	3.861
