Measurement: Powder, Xray Data XY Processed
Mineral: Andradite
Rruff sample: R050377
Ideal chemistry: Ca_3_Fe^3+^_2_(SiO_4_)_3_
Locality: Zlatoust District, South Urals, Russia
Source: University of Arizona Mineral Museum
Description: Dark red cubes
Diffraction sample description: Powder
Measured chemistry: Ca_3.00_(Fe^3+^_1.48_Ti_0.31_Mg_0.14_Zr_0.07_)_Σ=2_(Si_2.73_Al_0.24_Ti_0.03_)_Σ=3_O_12_
Cell parameters: a: 12.0828(3) b: 12.0828(3) c: 12.0828(3) alpha: 90. beta: 90. gamma: 90. volume: 1764.0(1) crystal system: cubic
x	intensity
5	0
5.22	9.186
5.44	5.312
5.66	11.154
5.88	10.382
6.1	8.067
6.32	20.268
6.54	4.244
6.76	13.39
6.98	12.81
7.2	12.839
7.42	26.139
7.64	20.418
7.86	17.123
8.08	4.812
8.3	10.049
8.52	3.611
8.74	6.721
8.96	18.002
9.18	4.05
9.4	12.656
9.62	5.791
9.84	7.211
10.06	8.315
10.28	17.517
10.5	9.354
10.72	10.777
10.94	10.331
11.16	1.714
11.38	5.115
11.6	4.876
11.82	5.984
12.04	7.801
12.26	10.17
12.48	7.113
12.7	9.196
12.92	10.413
13.14	9.33
13.36	2.527
13.58	6.819
13.8	8.328
14.02	13.394
14.24	4.966
14.46	13.474
14.68	18.113
14.9	7.436
15.12	15.66
15.34	15.275
15.56	11.135
15.78	16.148
16	16.152
16.22	7.805
16.44	23.937
16.66	3.21
16.88	8.515
17.1	13.761
17.32	17.685
17.54	7.983
17.76	9.262
17.98	4.535
18.2	8.971
18.42	16.056
18.64	14.265
18.86	1.251
19.08	13.989
19.3	6.721
19.52	7.774
19.74	4.705
19.96	13.486
20.18	11.652
20.4	8.571
20.62	2.659
20.84	46.8
21.06	2.733
21.28	12.789
21.5	3.718
21.72	8.686
21.94	1.865
22.16	0.906
22.38	8.038
22.6	3.854
22.82	11.45
23.04	18.593
23.26	30.344
23.48	4.162
23.7	9.538
23.92	8.361
24.14	13.498
24.36	6.639
24.58	5.832
24.8	15.108
25.02	13.878
25.24	33.39
25.46	7.373
25.68	13.185
25.9	12.26
26.12	10.332
26.34	12.369
26.56	3.203
26.78	2.974
27	0.73
27.22	16.682
27.44	12.66
27.66	12.563
27.88	12.024
28.1	5.914
28.32	2.957
28.54	17.479
28.76	13.396
28.98	13.625
29.2	9.997
29.42	14.613
29.64	118.914
29.86	35.212
30.08	13.801
30.3	13.209
30.52	9.916
30.74	2.402
30.96	17.031
31.18	5.535
31.4	4.887
31.62	6.055
31.84	13.715
32.06	13.53
32.28	3.947
32.5	14.431
32.72	9.635
32.94	69.377
33.16	496.169
33.38	52.968
33.6	23.121
33.82	11.403
34.04	6.771
34.26	5.264
34.48	8.778
34.7	14.674
34.92	30.074
35.14	12.099
35.36	19.826
35.58	16.349
35.8	0.001
36.02	0.035
36.24	5.065
36.46	136.171
36.68	13.259
36.9	6.164
37.12	9.351
37.34	13.425
37.56	3.681
37.78	10.248
38	64.148
38.22	17.395
38.44	4.615
38.66	15.292
38.88	16.929
39.1	20.969
39.32	5.845
39.54	14.411
39.76	9.445
39.98	20.282
40.2	10.026
40.42	4.052
40.64	14.096
40.86	41.234
41.08	11.692
41.3	0.53
41.52	7.068
41.74	20.082
41.96	8.497
42.18	8.718
42.4	3.787
42.62	12.847
42.84	5.947
43.06	1.003
43.28	11.866
43.5	17.234
43.72	0.095
43.94	10.232
44.16	7.166
44.38	10.954
44.6	3.634
44.82	6.488
45.04	14.6
45.26	13.383
45.48	0.961
45.7	2.197
45.92	10.636
46.14	23.209
46.36	51.593
46.58	12.956
46.8	1.824
47.02	12.539
47.24	7.028
47.46	66.307
47.68	57.317
47.9	11.339
48.12	9.332
48.34	3.463
48.56	2.99
48.78	11.756
49	20.291
49.22	10.771
49.44	5.097
49.66	2.195
49.88	11.067
50.1	6.622
50.32	17.039
50.54	13.92
50.76	2.714
50.98	10.826
51.2	4.875
51.42	8.731
51.64	8.695
51.86	15.127
52.08	13.403
52.3	3.97
52.52	16.301
52.74	25.075
52.96	6.64
53.18	19.057
53.4	4.464
53.62	17.71
53.84	12.402
54.06	9.916
54.28	7.52
54.5	13.992
54.72	34.997
54.94	27.156
55.16	18.471
55.38	5.871
55.6	3.114
55.82	6.074
56.04	11.284
56.26	3.505
56.48	10.536
56.7	11.015
56.92	42.74
57.14	80.271
57.36	6.72
57.58	10.501
57.8	9.047
58.02	0.152
58.24	2.21
58.46	25.2
58.68	7.273
58.9	31.988
59.12	25.868
59.34	51.889
59.56	23.48
59.78	7.465
60	3.534
60.22	13.588
60.44	20.637
60.66	10.723
60.88	11.178
61.1	10.761
61.32	18.153
61.54	7.304
61.76	16.276
61.98	12.193
62.2	3.226
62.42	7.465
62.64	9.556
62.86	10.834
63.08	4.924
63.3	0.497
63.52	11.461
63.74	7.201
63.96	2.904
64.18	15.136
64.4	8.223
64.62	10.499
64.84	9.589
65.06	2.651
65.28	12.477
65.5	12.617
65.72	6.378
65.94	0.348
66.16	6.909
66.38	0.862
66.6	11.026
66.82	7.255
67.04	9.979
67.26	1.817
67.48	7.137
67.7	9.985
67.92	7.688
68.14	3.533
68.36	3.423
68.58	0.073
68.8	10.634
69.02	7.578
69.24	14.728
69.46	35.058
69.68	23.449
69.9	9.512
70.12	17.733
70.34	2.043
70.56	5.309
70.78	7.472
71	9.825
71.22	0.986
71.44	15.469
71.66	20.089
71.88	2.688
72.1	8.59
72.32	3.371
72.54	13.136
72.76	4.834
72.98	25.804
73.2	2.742
73.42	13.169
73.64	7.563
73.86	3.51
74.08	6.354
74.3	1.839
74.52	13.105
74.74	1.029
74.96	7.045
75.18	19.328
75.4	6.563
75.62	19.712
75.84	11.774
76.06	7.749
76.28	11.67
76.5	8.395
76.72	14.01
76.94	2.726
77.16	10.847
77.38	3.68
77.6	10.308
77.82	4.758
78.04	7.394
78.26	0.895
78.48	2.784
78.7	9.575
78.92	9.695
79.14	17.817
79.36	7.396
79.58	8.647
79.8	6.297
80.02	7.707
80.24	2.941
80.46	15.292
80.68	7.843
80.9	3.082
81.12	7.33
81.34	6.474
81.56	11.376
81.78	7.16
82	8.114
82.22	19.001
82.44	0.865
82.66	16.116
82.88	5.89
83.1	9.587
83.32	4.513
83.54	12.701
83.76	9.797
83.98	7.8
84.2	11.603
84.42	9.289
84.64	10.24
84.86	19.085
85.08	7.744
85.3	13.926
85.52	7.911
85.74	11.971
85.96	13.585
86.18	8.172
86.4	19.256
86.62	8.413
86.84	22.999
87.06	14.083
87.28	5.156
87.5	9.924
87.72	9.517
87.94	5.532
88.16	14.559
88.38	20.865
88.6	25.725
88.82	15.278
89.04	7.964
89.26	15.146
89.48	0.498
89.7	7.435
89.92	9.133
