Measurement: Powder, Xray Data XY Processed
Mineral: Andradite
Rruff sample: R050311
Ideal chemistry: Ca_3_Fe^3+^_2_(SiO_4_)_3_
Locality: Calaveras County, California, USA
Source: Eugene Schlepp
Description: Deep red crystals
Diffraction sample description: Powder
Measured chemistry: (Ca_2.88_Mn_0.07_Fe^2+^_0.05_)_Σ=3_(Fe^3+^_1.39_Al_0.59_Ti_0.02_)_Σ=2_((Si_0.99_Al_0.01_)_Σ=1_O_4_)_3_
Cell parameters: a: 11.9779(8) b: 11.9779(8) c: 11.9779(8) alpha: 90 beta: 90 gamma: 90 volume: 1718.5(0) crystal system: cubic
x	intensity
5	0
5.22	0.667671
5.44	28.5173
5.66	15.1616
5.88	12.0994
6.1	5.50282
6.32	15.3961
6.54	10.9457
6.76	11.3338
6.98	24.5002
7.2	6.85466
7.42	18.1543
7.64	1.4446
7.86	5.72963
8.08	19.1562
8.3	5.17707
8.52	0.133266
8.74	11.1813
8.96	7.77265
9.18	14.6096
9.4	20.7593
9.62	2.73914
9.84	18.0704
10.06	19.4488
10.28	0.593033
10.5	6.16399
10.72	14.1039
10.94	19.6854
11.16	13.3669
11.38	5.09914
11.6	13.8205
11.82	4.69644
12.04	12.4728
12.26	1.19758
12.48	4.65703
12.7	3.61007
12.92	9.85301
13.14	4.64934
13.36	4.94402
13.58	27.5714
13.8	6.27407
14.02	9.91468
14.24	8.86802
14.46	10.2299
14.68	3.22481
14.9	11.0674
15.12	14.7221
15.34	18.8586
15.56	1.54904
15.78	2.70941
16	9.27277
16.22	14.2562
16.44	16.3156
16.66	6.04174
16.88	20.6858
17.1	1.35821
17.32	21.0474
17.54	11.5486
17.76	6.37193
17.98	22.0161
18.2	19.4791
18.42	14.5083
18.64	1.66557
18.86	26.5896
19.08	8.99931
19.3	31.1251
19.52	11.3618
19.74	25.1902
19.96	6.31428
20.18	11.3211
20.4	3.25371
20.62	8.05072
20.84	14.6564
21.06	47.0968
21.28	16.8373
21.5	10.7099
21.72	22.8001
21.94	0.141678
22.16	11.8915
22.38	22.079
22.6	9.23543
22.82	18.3043
23.04	12.8207
23.26	14.7918
23.48	17.9304
23.7	11.4169
23.92	16.907
24.14	13.8764
24.36	12.9099
24.58	10.7027
24.8	3.35362
25.02	6.99655
25.24	17.0845
25.46	3.19145
25.68	1.40934
25.9	21.3736
26.12	16.9315
26.34	3.84919
26.56	1.98352
26.78	17.3627
27	0.036282
27.22	21.257
27.44	25.4867
27.66	13.9774
27.88	4.68437
28.1	20.8008
28.32	22.9208
28.54	20.7095
28.76	17.4201
28.98	9.23474
29.2	8.58732
29.42	13.0903
29.64	15.6238
29.86	174.526
30.08	32.6913
30.3	2.29827
30.52	0.774067
30.74	13.676
30.96	2.41519
31.18	7.19239
31.4	11.6258
31.62	3.47634
31.84	16.0138
32.06	16.863
32.28	10.4606
32.5	2.83787
32.72	9.70207
32.94	5.62436
33.16	29.3053
33.38	195.06
33.6	201.793
33.82	16.5524
34.04	34.6312
34.26	9.74543
34.48	18.2336
34.7	9.43939
34.92	4.13308
35.14	30.9294
35.36	16.6004
35.58	19.0853
35.8	24.763
36.02	7.61358
36.24	22.3061
36.46	23.5895
36.68	111.662
36.9	73.256
37.12	19.0932
37.34	18.2002
37.56	11.0215
37.78	20.0059
38	27.7093
38.22	34.8297
38.44	41.9672
38.66	11.723
38.88	5.52428
39.1	15.9778
39.32	13.1817
39.54	1.47333
39.76	11.2633
39.98	9.07652
40.2	9.72982
40.42	12.1055
40.64	10.1636
40.86	1.07977
41.08	12.4607
41.3	44.3924
41.52	15.2716
41.74	10.178
41.96	8.98985
42.18	1.22323
42.4	17.5946
42.62	5.85515
42.84	4.5758
43.06	23.0796
43.28	22.6828
43.5	34.8888
43.72	9.26435
43.94	16.5099
44.16	1.28991
44.38	2.76167
44.6	5.87554
44.82	4.57917
45.04	15.3681
45.26	18.7843
45.48	17.0592
45.7	13.5942
45.92	8.28961
46.14	6.95937
46.36	17.645
46.58	14.2335
46.8	85.9916
47.02	25.5829
47.24	0.549824
47.46	3.53031
47.68	0.344658
47.9	16.7076
48.12	38.7289
48.34	12.6307
48.56	7.54096
48.78	2.72556
49	1.19194
49.22	24.0273
49.44	17.7989
49.66	13.0733
49.88	10.2465
50.1	8.67293
50.32	19.369
50.54	5.48164
50.76	12.8885
50.98	5.9849
51.2	26.2634
51.42	19.9072
51.64	14.1153
51.86	17.4116
52.08	13.1211
52.3	20.0614
52.52	16.6018
52.74	2.48149
52.96	15.3488
53.18	19.3472
53.4	14.8216
53.62	12.2549
53.84	21.1556
54.06	4.06735
54.28	11.0028
54.5	18.9165
54.72	25.6543
54.94	17.1806
55.16	19.9575
55.38	71.011
55.6	23.6468
55.82	15.6581
56.04	5.96171
56.26	1.76908
56.48	5.36787
56.7	17.4908
56.92	0.546913
57.14	4.55857
57.36	16.8147
57.58	102.549
57.8	48.5351
58.02	10.1955
58.24	8.51559
58.46	9.9571
58.68	9.62232
58.9	12.6317
59.12	11.2114
59.34	18.4254
59.56	24.0102
59.78	25.2906
60	10.0799
60.22	5.10619
60.44	4.6267
60.66	14.2368
60.88	16.938
61.1	24.4811
61.32	10.2112
61.54	12.5867
61.76	17.0205
61.98	25.6316
62.2	15.7128
62.42	15.5614
62.64	12.9131
62.86	16.2445
63.08	11.089
63.3	16.3994
63.52	15.0414
63.74	4.02987
63.96	9.7486
64.18	29.6977
64.4	8.23834
64.62	15.1854
64.84	17.9527
65.06	8.93185
65.28	5.02493
65.5	10.3461
65.72	12.3859
65.94	2.96788
66.16	13.4959
66.38	15.2792
66.6	5.29392
66.82	7.48112
67.04	20.5366
67.26	11.2751
67.48	1.55275
67.7	7.56075
67.92	15.7064
68.14	11.0759
68.36	1.18704
68.58	15.6211
68.8	16.6259
69.02	0.801003
69.24	26.5471
69.46	8.10706
69.68	20.7965
69.9	6.38393
70.12	40.1074
70.34	24.4864
70.56	13.5782
70.78	9.70238
71	9.53617
71.22	2.31275
71.44	1.72699
71.66	7.22397
71.88	13.5887
72.1	34.6178
72.32	29.5318
72.54	22.708
72.76	9.40992
72.98	19.3031
73.2	12.8597
73.42	13.9242
73.64	10.1663
73.86	14.0216
74.08	24.7254
74.3	11.5005
74.52	4.48707
74.74	18.8649
74.96	6.16877
75.18	10.9365
75.4	23.3624
75.62	21.0064
75.84	6.17771
76.06	11.5992
76.28	24.0354
76.5	0.815708
76.72	5.91669
76.94	13.8472
77.16	5.32148
77.38	19.5178
77.6	19.368
77.82	10.9947
78.04	8.68863
78.26	3.80246
78.48	3.45965
78.7	2.76662
78.92	5.86074
79.14	17.077
79.36	24.0298
79.58	19.7384
79.8	1.91956
80.02	13.7486
80.24	27.5199
80.46	7.82046
80.68	16.2141
80.9	15.35
81.12	0.783436
81.34	13.4816
81.56	11.3391
81.78	24.0869
82	21.2387
82.22	21.2641
82.44	8.4207
82.66	5.19384
82.88	16.1409
83.1	2.81162
83.32	5.76212
83.54	19.0512
83.76	17.7677
83.98	11.9073
84.2	0.247417
84.42	20.727
84.64	5.33191
84.86	4.78788
85.08	14.8493
85.3	5.33486
85.52	9.43529
85.74	20.7814
85.96	2.76563
86.18	10.3473
86.4	20.228
86.62	27.5926
86.84	13.3034
87.06	10.745
87.28	17.7294
87.5	6.48435
87.72	13.568
87.94	20.5031
88.16	19.4476
88.38	3.60921
88.6	10.4904
88.82	11.0198
89.04	2.61477
89.26	5.4436
89.48	27.6007
89.7	25.6698
89.92	13.4948
