Measurement: Powder, Xray Data XY Processed
Mineral: Anglesite
Rruff sample: R050408
Ideal chemistry: Pb^2+^S^6+^O_4_
Locality: Tsumeb mine, Tsumeb, Otavi District, Oshikoto, Namibia
Source: California Institute of Technology
Description: Pale yellow fragment
Diffraction sample description: Powder
Measured chemistry: Pb_1.00_S_1.00_O_4_
Cell parameters: a: 6.9614(8) b: 8.4787(9) c: 5.3985(7) alpha: 90. beta: 90. gamma: 90. volume: 318.64(4) crystal system: orthorhombic
x	intensity
5	0
5.22	1.24057
5.44	7.24935
5.66	3.41845
5.88	12.7449
6.1	14.803
6.32	10.999
6.54	10.0573
6.76	6.66278
6.98	7.98905
7.2	4.20556
7.42	5.39469
7.64	5.60693
7.86	2.53493
8.08	2.51625
8.3	6.50758
8.52	1.48188
8.74	9.39574
8.96	8.22439
9.18	0.754885
9.4	8.86826
9.62	14.9434
9.84	4.01324
10.06	5.20071
10.28	5.36453
10.5	2.55566
10.72	4.62869
10.94	0.125977
11.16	5.98546
11.38	10.1627
11.6	3.17127
11.82	1.90385
12.04	0.930754
12.26	1.96968
12.48	4.73595
12.7	3.7526
12.92	2.93415
13.14	7.86656
13.36	2.71782
13.58	3.70809
13.8	0.167919
14.02	5.98986
14.24	2.99663
14.46	5.8605
14.68	0.115427
14.9	4.98805
15.12	7.08288
15.34	7.88549
15.56	2.88415
15.78	5.02937
16	1.08862
16.22	3.96628
16.44	2.95945
16.66	6.97573
16.88	1.10666
17.1	10.1011
17.32	3.15908
17.54	3.96732
17.76	2.10983
17.98	2.10012
18.2	1.03251
18.42	4.86322
18.64	0.115828
18.86	4.98028
19.08	2.92886
19.3	1.87432
19.52	5.64825
19.74	0.525547
19.96	5.45786
20.18	6.2353
20.4	5.16664
20.62	1.20248
20.84	91.484
21.06	71.3503
21.28	5.28618
21.5	1.38753
21.72	5.34284
21.94	8.2734
22.16	6.15182
22.38	4.01728
22.6	0.905505
22.82	4.71718
23.04	6.61266
23.26	20.2344
23.48	46.9849
23.7	8.74508
23.92	10.4991
24.14	10.8287
24.36	7.99288
24.58	24.8871
24.8	2.78039
25.02	3.93739
25.24	0.897052
25.46	4.61231
25.68	65.1639
25.9	8.93834
26.12	2.19915
26.34	4.60749
26.56	7.8036
26.78	147.684
27	32.685
27.22	11.3831
27.44	6.57415
27.66	23.631
27.88	47.9249
28.1	1.36042
28.32	4.6627
28.54	3.78251
28.76	1.92098
28.98	2.06072
29.2	1.16699
29.42	8.31989
29.64	42.0822
29.86	97.9701
30.08	15.0487
30.3	2.11448
30.52	5.0552
30.74	8.35628
30.96	5.6749
31.18	2.61595
31.4	9.50732
31.62	3.3256
31.84	10.0735
32.06	4.75629
32.28	14.3019
32.5	42.9083
32.72	6.79163
32.94	9.7878
33.16	34.3841
33.38	40.1093
33.6	6.54252
33.82	0.202625
34.04	6.48121
34.26	13.8265
34.48	9.49508
34.7	4.99618
34.92	8.44574
35.14	1.90921
35.36	3.93207
35.58	5.1734
35.8	3.19405
36.02	1.87625
36.24	0.703035
36.46	2.09894
36.68	2.95751
36.9	0.547161
37.12	11.3262
37.34	13.9308
37.56	8.27442
37.78	4.43245
38	4.42829
38.22	5.37843
38.44	4.33613
38.66	7.34067
38.88	5.30657
39.1	4.13163
39.32	2.92625
39.54	25.0068
39.76	19.2563
39.98	5.43726
40.2	1.96125
40.42	6.78173
40.64	1.64734
40.86	1.47223
41.08	9.34399
41.3	8.14761
41.52	8.12376
41.74	26.9776
41.96	28.1119
42.18	8.5635
42.4	11.3286
42.62	7.08172
42.84	3.40341
43.06	1.15265
43.28	1.6877
43.5	21.3046
43.72	59.9647
43.94	99.4776
44.16	29.5907
44.38	8.63326
44.6	68.8103
44.82	56.9453
45.04	13.176
45.26	2.52331
45.48	2.03318
45.7	2.43832
45.92	24.4616
46.14	43.9173
46.36	9.47752
46.58	6.79439
46.8	0.324144
47.02	4.5624
47.24	3.92739
47.46	2.17939
47.68	10.4262
47.9	2.81233
48.12	5.20798
48.34	10.0458
48.56	8.27116
48.78	0.577675
49	0.48588
49.22	0.551715
49.44	4.59563
49.66	2.51601
49.88	2.49354
50.1	5.4301
50.32	9.20762
50.54	2.67597
50.76	14.834
50.98	26.0701
51.2	13.2463
51.42	2.06931
51.64	7.93758
51.86	11.751
52.08	1.58329
52.3	8.33719
52.52	11.075
52.74	7.85631
52.96	4.64748
53.18	2.9742
53.4	5.72899
53.62	5.54025
53.84	39.0156
54.06	19.3256
54.28	6.4325
54.5	2.56892
54.72	3.768
54.94	0.998036
55.16	4.62332
55.38	10.8321
55.6	16.6983
55.82	10.707
56.04	13.5639
56.26	0.020386
56.48	3.80903
56.7	15.9331
56.92	21.209
57.14	31.2552
57.36	11.1251
57.58	5.76057
57.8	2.31552
58.02	2.80485
58.24	2.0632
58.46	7.2507
58.68	7.29908
58.9	22.3951
59.12	11.5467
59.34	7.31829
59.56	2.63769
59.78	2.55231
60	2.79979
60.22	11.8582
60.44	2.74612
60.66	3.68469
60.88	3.40339
61.1	1.23331
61.32	4.00296
61.54	7.48642
61.76	0.356966
61.98	8.15926
62.2	16.81
62.42	10.3313
62.64	15.0319
62.86	1.95023
63.08	7.9471
63.3	13.0271
63.52	9.9453
63.74	5.93075
63.96	4.95232
64.18	1.18511
64.4	6.69215
64.62	16.2249
64.84	9.47563
65.06	17.6144
65.28	14.6245
65.5	8.12267
65.72	7.98834
65.94	1.119
66.16	9.71338
66.38	3.49685
66.6	11.3793
66.82	11.6277
67.04	8.15629
67.26	6.78231
67.48	8.21403
67.7	8.18297
67.92	4.13651
68.14	10.4638
68.36	22.5333
68.58	21.5792
68.8	12.7057
69.02	6.702
69.24	2.5846
69.46	6.52789
69.68	18.9697
69.9	8.47324
70.12	19.7303
70.34	9.04453
70.56	7.40997
70.78	8.87844
71	5.26906
71.22	8.63436
71.44	5.94964
71.66	0.259053
71.88	6.29573
72.1	8.60441
72.32	7.89669
72.54	6.06792
72.76	3.05224
72.98	3.52497
73.2	4.69675
73.42	5.05026
73.64	11.9453
73.86	9.69686
74.08	3.56083
74.3	7.14297
74.52	2.89122
74.74	2.57901
74.96	11.3156
75.18	7.30576
75.4	6.30399
75.62	8.39376
75.84	4.31648
76.06	3.15495
76.28	6.3001
76.5	3.20312
76.72	3.0511
76.94	4.05173
77.16	1.9174
77.38	7.87864
77.6	5.80824
77.82	1.78796
78.04	1.97406
78.26	14.237
78.48	15.6862
78.7	13.9674
78.92	9.47231
79.14	5.69864
79.36	0.974699
79.58	4.17005
79.8	4.31982
80.02	13.4401
80.24	7.4898
80.46	4.46969
80.68	2.35727
80.9	3.44295
81.12	6.52652
81.34	8.07012
81.56	1.75103
81.78	3.60682
82	3.45867
82.22	6.45046
82.44	9.45734
82.66	5.49717
82.88	9.34753
83.1	12.5778
83.32	17.1233
83.54	6.82867
83.76	2.83276
83.98	2.8798
84.2	3.92633
84.42	7.62769
84.64	7.48433
84.86	5.46722
85.08	12.3802
85.3	3.27111
85.52	13.12
85.74	6.95262
85.96	6.85017
86.18	5.98114
86.4	6.15373
86.62	7.09861
86.84	10.438
87.06	10.5868
87.28	3.95315
87.5	3.49616
87.72	4.32079
87.94	0.366229
88.16	9.3776
88.38	3.30423
88.6	1.99669
88.82	6.799
89.04	11.8758
89.26	7.10218
89.48	12.3103
89.7	7.122
89.92	3.62393
