Measurement: Powder, Xray Data XY Processed
Mineral: Anglesite
Rruff sample: R050052
Ideal chemistry: Pb^2+^S^6+^O_4_
Locality: Touissite, Oujela, Morocco
Source: Eugene Schlepp
Description: Yellow prismatic single crystal
Diffraction sample description: Powder
Measured chemistry: Pb_1.00_S_1.00_O_4_
Cell parameters: a: 6.9598(5) b: 8.4801(6) c: 5.3974(3) alpha: 90. beta: 90. gamma: 90. volume: 318.55(2) crystal system: orthorhombic
x	intensity
5	0
5.22	0.886
5.44	10.869
5.66	4.524
5.88	9.542
6.1	9.716
6.32	9.961
6.54	7.097
6.76	10.479
6.98	8.082
7.2	5.698
7.42	0.152
7.64	3.475
7.86	2.801
8.08	0.906
8.3	7.264
8.52	6.421
8.74	5.405
8.96	4.487
9.18	7.69
9.4	6.498
9.62	11.384
9.84	12.407
10.06	4.469
10.28	3.674
10.5	2.835
10.72	7.888
10.94	3.871
11.16	5.951
11.38	0.247
11.6	5.711
11.82	4.742
12.04	8.835
12.26	5.799
12.48	7.793
12.7	1.644
12.92	9.517
13.14	2.665
13.36	5.858
13.58	1.846
13.8	4.115
14.02	4.175
14.24	1.828
14.46	0.026
14.68	13.947
14.9	2.987
15.12	7.005
15.34	1.923
15.56	6.723
15.78	1.489
16	1.431
16.22	2.207
16.44	6.426
16.66	1.506
16.88	8.52
17.1	2.524
17.32	2.68
17.54	3.626
17.76	3.652
17.98	2.69
18.2	3.758
18.42	6.792
18.64	5.241
18.86	20.592
19.08	3.706
19.3	7.526
19.52	7.371
19.74	1.111
19.96	1.636
20.18	8.429
20.4	10.213
20.62	17.145
20.84	193.571
21.06	58.732
21.28	12.678
21.5	3.875
21.72	4.963
21.94	4.959
22.16	7.876
22.38	4.735
22.6	3.548
22.82	7.286
23.04	12.905
23.26	41.869
23.48	59.331
23.7	2.746
23.92	8.217
24.14	17.302
24.36	2.021
24.58	44.717
24.8	2.599
25.02	8.087
25.24	4.924
25.46	10.646
25.68	66.815
25.9	7.565
26.12	5.335
26.34	0.089
26.56	18.426
26.78	227.204
27	17.187
27.22	5.321
27.44	23.41
27.66	73.059
27.88	45.292
28.1	16.593
28.32	6.897
28.54	3.185
28.76	1.436
28.98	4.679
29.2	5.966
29.42	11.422
29.64	96.243
29.86	136.3
30.08	25.427
30.3	9.907
30.52	4.204
30.74	1.322
30.96	11.645
31.18	2.532
31.4	10.309
31.62	6.048
31.84	4.499
32.06	1.838
32.28	30.171
32.5	72.584
32.72	6.042
32.94	17.71
33.16	64.335
33.38	35.513
33.6	4.985
33.82	0.013
34.04	0.729
34.26	21.36
34.48	5.181
34.7	7.961
34.92	4.318
35.14	6.631
35.36	8.068
35.58	1.441
35.8	0.573
36.02	4.356
36.24	1.533
36.46	10.27
36.68	0.886
36.9	1.712
37.12	7.311
37.34	38.492
37.56	8.433
37.78	4.549
38	4.368
38.22	14.098
38.44	4.955
38.66	5.784
38.88	8.869
39.1	4.492
39.32	4.147
39.54	44.257
39.76	33.852
39.98	5.518
40.2	7.557
40.42	14.148
40.64	5.816
40.86	0.466
41.08	9.213
41.3	3.644
41.52	14.376
41.74	56.405
41.96	24.823
42.18	9.351
42.4	11.843
42.62	11.513
42.84	5.005
43.06	5.483
43.28	0.123
43.5	33.342
43.72	131.834
43.94	139.46
44.16	25.829
44.38	19.884
44.6	140.076
44.82	94.362
45.04	10.805
45.26	10.517
45.48	8.496
45.7	2.757
45.92	22.05
46.14	33.922
46.36	13.798
46.58	5.009
46.8	0.574
47.02	0.067
47.24	9.267
47.46	2.516
47.68	6.776
47.9	6.722
48.12	12.832
48.34	8.834
48.56	14.001
48.78	6.313
49	5.901
49.22	8.349
49.44	2.457
49.66	6.717
49.88	6.859
50.1	8.746
50.32	10.942
50.54	8.777
50.76	23.546
50.98	33.487
51.2	13.186
51.42	5.576
51.64	8.074
51.86	1.819
52.08	6.004
52.3	7.689
52.52	27.431
52.74	18.977
52.96	10.654
53.18	3.38
53.4	6.223
53.62	19.527
53.84	44.899
54.06	19.432
54.28	6.14
54.5	0.943
54.72	2.092
54.94	3.309
55.16	5.243
55.38	8.101
55.6	15.944
55.82	4.753
56.04	2.192
56.26	1.529
56.48	10.416
56.7	16.683
56.92	38.035
57.14	33.501
57.36	18.551
57.58	0.747
57.8	9.123
58.02	2.457
58.24	5.049
58.46	9.698
58.68	18.216
58.9	18.144
59.12	6.018
59.34	8.753
59.56	10.892
59.78	2.827
60	3.008
60.22	4.805
60.44	16.307
60.66	1.571
60.88	9.977
61.1	1.316
61.32	12.84
61.54	6.264
61.76	2.945
61.98	23.439
62.2	40.04
62.42	15.338
62.64	1.876
62.86	14.462
63.08	2.842
63.3	17.817
63.52	12.73
63.74	9.771
63.96	6.832
64.18	2.838
64.4	3.758
64.62	18.138
64.84	15.804
65.06	5.86
65.28	13.024
65.5	18.261
65.72	0.235
65.94	5.164
66.16	2.045
66.38	21.606
66.6	19.315
66.82	14.438
67.04	10.222
67.26	19.619
67.48	11.103
67.7	4.694
67.92	0.154
68.14	2.959
68.36	29.114
68.58	24.068
68.8	17.086
69.02	0.851
69.24	4.972
69.46	1.404
69.68	12.798
69.9	8.05
70.12	27.328
70.34	8.42
70.56	7.093
70.78	9.741
71	12.475
71.22	8.059
71.44	7.782
71.66	7.228
71.88	6.328
72.1	7.722
72.32	3.174
72.54	4.469
72.76	3.417
72.98	2.216
73.2	2.513
73.42	10.324
73.64	7.075
73.86	4.647
74.08	5.357
74.3	9.994
74.52	9.132
74.74	6.687
74.96	12.526
75.18	8.455
75.4	2.38
75.62	4.536
75.84	9.387
76.06	9.356
76.28	6.505
76.5	16.715
76.72	0.622
76.94	7.242
77.16	5.369
77.38	10.516
77.6	3.698
77.82	2.015
78.04	13.767
78.26	15.108
78.48	17.404
78.7	11.555
78.92	1.771
79.14	2.119
79.36	6.303
79.58	1.503
79.8	3.696
80.02	10.792
80.24	5.573
80.46	11.109
80.68	5.921
80.9	14.128
81.12	19.517
81.34	13.547
81.56	8.413
81.78	2.072
82	7.949
82.22	3.231
82.44	9.687
82.66	4.835
82.88	14.625
83.1	15.098
83.32	18.492
83.54	11.265
83.76	2.109
83.98	7.796
84.2	4.145
84.42	0.404
84.64	20.423
84.86	1.663
85.08	5.585
85.3	5.452
85.52	5.953
85.74	3.826
85.96	8.677
86.18	1.577
86.4	8.69
86.62	12.274
86.84	13.865
87.06	6.659
87.28	8.765
87.5	1.256
87.72	14.985
87.94	6.04
88.16	4.115
88.38	9.16
88.6	3.225
88.82	0.121
89.04	6.344
89.26	12.156
89.48	2.499
89.7	5.628
89.92	5.259
