Measurement: Powder, Xray Data XY Processed
Mineral: Anhydrite
Rruff sample: R040012
Ideal chemistry: CaS^6+^O_4_
Locality: Moundhouse, Nevada, USA
Source: University of Arizona Mineral Museum
Description: White massive
Diffraction sample description: Powder
Measured chemistry: Ca_1.00_S_1.00_O_4_
Cell parameters: a: 7.0040(5) b: 6.9930(4) c: 6.2405(2) alpha: 90. beta: 90. gamma: 90. volume: 305.65(2) crystal system: orthorhombic
x	intensity
5	0
5.22	29.303
5.44	12.426
5.66	28.601
5.88	29.177
6.1	19.272
6.32	5.541
6.54	0.715
6.76	11.781
6.98	5.764
7.2	17.721
7.42	5.619
7.64	5.128
7.86	2.257
8.08	7.377
8.3	3.037
8.52	0.487
8.74	7.868
8.96	1.582
9.18	3.977
9.4	1.51
9.62	15.615
9.84	6.806
10.06	14.06
10.28	1.168
10.5	8.06
10.72	9.985
10.94	1.964
11.16	5.863
11.38	0.22
11.6	25.333
11.82	14.573
12.04	1.8
12.26	10.909
12.48	4.233
12.7	4.405
12.92	22.56
13.14	9.007
13.36	8.125
13.58	6.982
13.8	10.151
14.02	3.218
14.24	1.868
14.46	1.008
14.68	5.003
14.9	6.769
15.12	3.924
15.34	0.909
15.56	4.714
15.78	6.691
16	2.731
16.22	4.709
16.44	4.818
16.66	6.743
16.88	7.775
17.1	5.692
17.32	6.97
17.54	12.983
17.76	3.029
17.98	4.197
18.2	8.308
18.42	0.483
18.64	3.879
18.86	15.295
19.08	14.659
19.3	4.872
19.52	7.23
19.74	7.233
19.96	7.451
20.18	9.583
20.4	5.958
20.62	6.75
20.84	10.048
21.06	1.089
21.28	5.987
21.5	6.02
21.72	9.951
21.94	13.801
22.16	3.803
22.38	1.69
22.6	3.866
22.82	10.291
23.04	56.877
23.26	12.04
23.48	7.26
23.7	10.252
23.92	13.178
24.14	2.879
24.36	1.945
24.58	15.55
24.8	28.249
25.02	28.746
25.24	76.027
25.46	4961.22
25.68	148.522
25.9	11.469
26.12	13.935
26.34	4.875
26.56	11.882
26.78	9.748
27	7.506
27.22	2.329
27.44	2.027
27.66	7.602
27.88	3.255
28.1	5.265
28.32	6.669
28.54	8.554
28.76	17.574
28.98	6.55
29.2	10.88
29.42	80.717
29.64	18.88
29.86	4.373
30.08	2.442
30.3	4.534
30.52	6.734
30.74	1.877
30.96	5.017
31.18	15.847
31.4	438.245
31.62	27.173
31.84	6.084
32.06	38.509
32.28	3.594
32.5	5.141
32.72	9.491
32.94	5.144
33.16	3.488
33.38	3.896
33.6	9.083
33.82	3.902
34.04	1.811
34.26	6.943
34.48	7.804
34.7	3.668
34.92	3.318
35.14	6.172
35.36	7.735
35.58	2.635
35.8	3.611
36.02	11.592
36.24	54.69
36.46	33.049
36.68	8.058
36.9	3.195
37.12	6.273
37.34	2.271
37.56	4.241
37.78	2.195
38	0.765
38.22	1.943
38.44	1.809
38.66	241.785
38.88	19.812
39.1	1.058
39.32	3.915
39.54	15.783
39.76	2.744
39.98	6.724
40.2	7.661
40.42	6.515
40.64	16.631
40.86	203.8
41.08	32.698
41.3	68.204
41.52	25.208
41.74	1.478
41.96	1.562
42.18	4.625
42.4	4.715
42.62	3.815
42.84	1.1
43.06	12.15
43.28	40.105
43.5	60.304
43.72	13.039
43.94	13.015
44.16	4.014
44.38	11.083
44.6	13.133
44.82	6.479
45.04	5.74
45.26	7.766
45.48	89.773
45.7	1.634
45.92	4.192
46.14	3.899
46.36	7.423
46.58	8.024
46.8	15.816
47.02	28.053
47.24	15.308
47.46	8.705
47.68	17.017
47.9	2.773
48.12	11.669
48.34	2.578
48.56	27.769
48.78	76.585
49	12.168
49.22	44.11
49.44	7.259
49.66	2.675
49.88	5.267
50.1	0.671
50.32	2.061
50.54	1.437
50.76	9.811
50.98	8.82
51.2	4.292
51.42	13.076
51.64	4.017
51.86	9.029
52.08	17.242
52.3	409.546
52.52	58.785
52.74	15.759
52.96	4.871
53.18	8.856
53.4	1.342
53.62	1.539
53.84	8.611
54.06	3.679
54.28	1.534
54.5	1.727
54.72	0.702
54.94	1.33
55.16	3.118
55.38	11.177
55.6	21.045
55.82	78.69
56.04	23.76
56.26	3.761
56.48	9.961
56.7	3.946
56.92	0.068
57.14	2.929
57.36	7.126
57.58	11.202
57.8	13.96
58.02	9.991
58.24	0.859
58.46	1.324
58.68	4.579
58.9	16.442
59.12	27.757
59.34	11.051
59.56	2.177
59.78	3.061
60	1.002
60.22	0.025
60.44	3.011
60.66	20.236
60.88	23.874
61.1	8.187
61.32	11.059
61.54	0.154
61.76	1.705
61.98	1.083
62.2	30.306
62.42	28.646
62.64	11.957
62.86	3.75
63.08	3.845
63.3	0.272
63.52	1.535
63.74	4.743
63.96	4.951
64.18	6.922
64.4	6.705
64.62	3.512
64.84	10.241
65.06	1.803
65.28	2.257
65.5	30.298
65.72	6.976
65.94	5.815
66.16	4.583
66.38	0.319
66.6	1.766
66.82	9.978
67.04	19.273
67.26	7.635
67.48	2.85
67.7	4.061
67.92	0.923
68.14	4.371
68.36	10.557
68.58	5.667
68.8	0.779
69.02	3.039
69.24	3.96
69.46	3.938
69.68	2.237
69.9	1.228
70.12	0.172
70.34	3.091
70.56	5.767
70.78	2.598
71	2.444
71.22	8.194
71.44	50.23
71.66	23.163
71.88	7.993
72.1	2.345
72.32	4.384
72.54	5.567
72.76	6.478
72.98	9.356
73.2	12.252
73.42	7.172
73.64	3.083
73.86	1.969
74.08	17.052
74.3	28.419
74.52	20.64
74.74	10.834
74.96	1.834
75.18	11.19
75.4	0.602
75.62	0.53
75.84	2.786
76.06	10.828
76.28	9.829
76.5	5.752
76.72	13.657
76.94	10.519
77.16	12.128
77.38	3.871
77.6	0.303
77.82	2.511
78.04	3.567
78.26	2.257
78.48	10.344
78.7	12.294
78.92	12.122
79.14	4.066
79.36	2.05
79.58	1.381
79.8	6.404
80.02	3.912
80.24	13.463
80.46	8.644
80.68	1.748
80.9	3.697
81.12	5.707
81.34	0.652
81.56	0.454
81.78	13.192
82	4.778
82.22	8.369
82.44	2
82.66	57.558
82.88	46.43
83.1	13.535
83.32	3.562
83.54	7.631
83.76	5.744
83.98	0.819
84.2	2.677
84.42	4.944
84.64	5.188
84.86	6.391
85.08	0.757
85.3	0.18
85.52	0.063
85.74	1.988
85.96	0.324
86.18	0.731
86.4	3.544
86.62	0.29
86.84	2.254
87.06	3.119
87.28	6.083
87.5	0.096
87.72	0.8
87.94	4.804
88.16	15.943
88.38	36.808
88.6	19.603
88.82	15.652
89.04	2.18
89.26	8.043
89.48	9.511
89.7	4.28
89.92	10.337
