Measurement: Powder, Xray Data XY Processed
Mineral: Anhydrite
Rruff sample: R040061
Ideal chemistry: CaS^6+^O_4_
Locality: Chester County, Pennsylvania, USA
Source: University of Arizona Mineral Museum
Description: Pale purple fractured single crystal
Diffraction sample description: Powder
Measured chemistry: Ca_0.98_S_1.01_O_4_
Cell parameters: a: 6.9984(4) b: 6.9927(5) c: 6.2383(3) alpha: 90 beta: 90 gamma: 90 volume: 305.29(2) crystal system: orthorhombic
x	intensity
5	0
5.22	10
5.44	21.761
5.66	28.83
5.88	31.186
6.1	18.528
6.32	5.87
6.54	2.547
6.76	14.224
6.98	9.778
7.2	14.888
7.42	7.324
7.64	5.354
7.86	2.976
8.08	0.285
8.3	6.621
8.52	6.044
8.74	6.374
8.96	16.776
9.18	8.007
9.4	8.659
9.62	2.295
9.84	4.608
10.06	2.588
10.28	1.382
10.5	1.495
10.72	3.415
10.94	7.207
11.16	4.152
11.38	11.769
11.6	60.622
11.82	16.067
12.04	11.418
12.26	2.642
12.48	7.295
12.7	0.547
12.92	7.932
13.14	3.431
13.36	3.74
13.58	5.071
13.8	3.206
14.02	7.575
14.24	3.283
14.46	1.445
14.68	12.867
14.9	10.939
15.12	4.993
15.34	8.163
15.56	8.025
15.78	11.979
16	2.04
16.22	7.787
16.44	0.701
16.66	2.66
16.88	9.875
17.1	5.79
17.32	1.518
17.54	6.604
17.76	7.508
17.98	1.688
18.2	7.723
18.42	3.845
18.64	5.939
18.86	5.177
19.08	10.599
19.3	3.338
19.52	12.366
19.74	11.409
19.96	5.519
20.18	5.618
20.4	7.992
20.62	12.209
20.84	47.175
21.06	6.339
21.28	3.222
21.5	6.178
21.72	0.198
21.94	2.201
22.16	1.191
22.38	3.152
22.6	4.129
22.82	12.127
23.04	69.383
23.26	9.288
23.48	21.073
23.7	1.477
23.92	1.847
24.14	3.115
24.36	4.375
24.58	10.616
24.8	1.904
25.02	11.08
25.24	44
25.46	1481.24
25.68	183.838
25.9	24.035
26.12	7.305
26.34	15.709
26.56	4.317
26.78	4.246
27	5.146
27.22	2.689
27.44	8.213
27.66	11.718
27.88	5.985
28.1	5.286
28.32	15.085
28.54	10.259
28.76	5.487
28.98	12.579
29.2	46.665
29.42	6.54
29.64	2.656
29.86	1.611
30.08	2.496
30.3	2.34
30.52	5.161
30.74	4.989
30.96	15.705
31.18	30.318
31.4	286.084
31.62	32.882
31.84	12.812
32.06	34.985
32.28	7.353
32.5	6.703
32.72	1.035
32.94	3.674
33.16	1.396
33.38	11.894
33.6	5.258
33.82	3.415
34.04	4.646
34.26	2.183
34.48	5.257
34.7	4.158
34.92	4.07
35.14	2.967
35.36	1.631
35.58	3.121
35.8	6.963
36.02	8.044
36.24	24.984
36.46	49.74
36.68	8.439
36.9	7.739
37.12	3.841
37.34	4.906
37.56	7.986
37.78	3.07
38	1.179
38.22	4.342
38.44	9.733
38.66	140.817
38.88	30.725
39.1	8.763
39.32	4.463
39.54	2.174
39.76	5.944
39.98	3.714
40.2	6.497
40.42	14.303
40.64	27.884
40.86	196.463
41.08	39.459
41.3	36.498
41.52	38.73
41.74	5.22
41.96	6.512
42.18	6.72
42.4	6.938
42.62	2.157
42.84	2.318
43.06	9.526
43.28	25.522
43.5	55.639
43.72	14.792
43.94	11.424
44.16	3.109
44.38	3.148
44.6	2.165
44.82	2.459
45.04	0.615
45.26	7.111
45.48	29.922
45.7	14.671
45.92	9.39
46.14	2.062
46.36	3.719
46.58	4.428
46.8	7.366
47.02	22.172
47.24	8.47
47.46	6.777
47.68	0.787
47.9	4.986
48.12	5.794
48.34	7.641
48.56	18.645
48.78	150.895
49	18.147
49.22	30.342
49.44	12.511
49.66	0.733
49.88	1.292
50.1	5.409
50.32	3.741
50.54	0.086
50.76	0.442
50.98	2.581
51.2	1.459
51.42	8.449
51.64	1.28
51.86	3.255
52.08	15.888
52.3	110.977
52.52	39.778
52.74	10.461
52.96	5.536
53.18	2.628
53.4	2.829
53.62	3.17
53.84	4.335
54.06	0.342
54.28	1.265
54.5	0.16
54.72	7.891
54.94	4.696
55.16	2.008
55.38	5.994
55.6	14.004
55.82	86.854
56.04	18.721
56.26	11.778
56.48	5.81
56.7	0.851
56.92	3.886
57.14	6.092
57.36	8.243
57.58	5.459
57.8	14.473
58.02	10.378
58.24	5.464
58.46	4.385
58.68	5.616
58.9	12.874
59.12	31.185
59.34	13.327
59.56	3.266
59.78	8.274
60	0.117
60.22	3.126
60.44	1.172
60.66	21.437
60.88	21.475
61.1	6.11
61.32	5.975
61.54	1.243
61.76	4.974
61.98	0.95
62.2	16.141
62.42	25.594
62.64	6.975
62.86	5.079
63.08	6.052
63.3	1.298
63.52	1.558
63.74	4.599
63.96	7.73
64.18	2.587
64.4	1.548
64.62	2.247
64.84	0.135
65.06	4.79
65.28	1.931
65.5	16.734
65.72	22.473
65.94	2.253
66.16	7.24
66.38	4.12
66.6	0.219
66.82	6.381
67.04	24.576
67.26	5.922
67.48	8.972
67.7	5.869
67.92	0.018
68.14	1.212
68.36	0.506
68.58	8.711
68.8	7.026
69.02	6.109
69.24	0.224
69.46	0.816
69.68	1.193
69.9	3.185
70.12	0.908
70.34	5.973
70.56	2.825
70.78	0.474
71	6.305
71.22	6.193
71.44	17.912
71.66	15.913
71.88	5.741
72.1	2.423
72.32	4.271
72.54	3.339
72.76	0.394
72.98	7.304
73.2	3.254
73.42	3.222
73.64	6.99
73.86	5.911
74.08	11.967
74.3	53.227
74.52	31.416
74.74	7.886
74.96	1.802
75.18	0.906
75.4	0.362
75.62	4.535
75.84	0.366
76.06	2.649
76.28	0.682
76.5	1.598
76.72	4.407
76.94	5.265
77.16	12
77.38	6.929
77.6	0.384
77.82	8.307
78.04	0.22
78.26	5.088
78.48	9.161
78.7	38.077
78.92	22.934
79.14	2.94
79.36	0.842
79.58	2.96
79.8	7.22
80.02	9.557
80.24	12.892
80.46	6.124
80.68	2.141
80.9	7.102
81.12	0.76
81.34	2.145
81.56	4.992
81.78	5.792
82	4.456
82.22	2.076
82.44	7.656
82.66	31.311
82.88	30.264
83.1	26.157
83.32	8.036
83.54	3.947
83.76	1.144
83.98	3.409
84.2	7.692
84.42	6.967
84.64	6.197
84.86	1.475
85.08	1.838
85.3	0.011
85.52	0.384
85.74	1.709
85.96	3.055
86.18	2.041
86.4	6.139
86.62	5.993
86.84	0.837
87.06	2.631
87.28	4.352
87.5	3.949
87.72	6.608
87.94	3.329
88.16	9.856
88.38	42.626
88.6	31.563
88.82	18.516
89.04	1.496
89.26	1.669
89.48	4.055
89.7	0.337
89.92	7.131
