Measurement: Powder, Xray Data XY Processed
Mineral: Anilite
Rruff sample: R060688
Ideal chemistry: Cu_7_S_4_
Locality: Horai Halze bei Medenec, Erzgebirge, Czech Republic
Source: Michael Scott
Description: Black metallic massive; associated with malachite
Diffraction sample description: Powder, using Mo radiation
Measured chemistry: Cu_6.96_S_4.00
x	intensity
6	0
6.09	8.42036
6.18	1.36453
6.27	3.58228
6.36	12.8024
6.45	23.1601
6.54	38.9391
6.63	32.619
6.72	16.0399
6.81	31.3649
6.9	39.9914
6.99	33.0269
7.08	39.7667
7.17	56.9278
7.26	58.0687
7.35	49.4711
7.44	38.9516
7.53	41.9071
7.62	52.5177
7.71	60.2255
7.8	64.7827
7.89	38.8857
7.98	33.5683
8.07	37.6333
8.16	47.9166
8.25	39.7643
8.34	31.1424
8.43	23.6439
8.52	20.2842
8.61	21.7858
8.7	35.1858
8.79	31.1679
8.88	29.5286
8.97	32.9717
9.06	34.3819
9.15	32.6819
9.24	28.878
9.33	18.252
9.42	24.3144
9.51	22.3983
9.6	22.3197
9.69	19.2853
9.78	18.3596
9.87	21.2949
9.96	14.8096
10.05	14.4137
10.14	22.0637
10.23	19.7459
10.32	16.1942
10.41	27.0686
10.5	30.103
10.59	16.4888
10.68	13.7939
10.77	10.4308
10.86	10.4673
10.95	11.5747
11.04	9.55154
11.13	8.7948
11.22	6.70386
11.31	6.21936
11.4	7.26337
11.49	6.09811
11.58	9.47134
11.67	2.81253
11.76	0.818695
11.85	4.45105
11.94	16.7306
12.03	25.9107
12.12	45.6758
12.21	58.2746
12.3	55.0506
12.39	64.4112
12.48	68.3259
12.57	87.9959
12.66	114.148
12.75	124.698
12.84	124.72
12.93	107.187
13.02	73.8167
13.11	50.6239
13.2	56.1183
13.29	56.3879
13.38	62.9057
13.47	67.9021
13.56	54.4619
13.65	45.633
13.74	38.0526
13.83	17.2261
13.92	20.4718
14.01	10.7899
14.1	20.6691
14.19	31.5255
14.28	43.0358
14.37	79.8964
14.46	116.373
14.55	173.515
14.64	211.667
14.73	223.617
14.82	215.965
14.91	162.177
15	111.954
15.09	86.105
15.18	68.9425
15.27	53.9385
15.36	39.4359
15.45	21.9511
15.54	13.4078
15.63	12.9429
15.72	10.3041
15.81	14.655
15.9	27.8191
15.99	30.2701
16.08	33.8277
16.17	35.789
16.26	31.9212
16.35	32.1675
16.44	25.084
16.53	14.9741
16.62	11.9651
16.71	8.84528
16.8	13.4901
16.89	14.998
16.98	15.8405
17.07	8.27707
17.16	12.0794
17.25	10.9325
17.34	7.66635
17.43	0.75708
17.52	2.65016
17.61	3.75357
17.7	2.50688
17.79	2.14386
17.88	1.57546
17.97	3.82849
18.06	1.57285
18.15	9.70167
18.24	7.10263
18.33	0.03891
18.42	0.441605
18.51	6.80228
18.6	7.95067
18.69	13.0007
18.78	15.9896
18.87	24.2105
18.96	31.1325
19.05	36.0573
19.14	33.9116
19.23	34.0212
19.32	20.5993
19.41	5.96402
19.5	2.01173
19.59	1.57607
19.68	3.21439
19.77	7.07634
19.86	8.38953
19.95	7.01083
20.04	4.17271
20.13	1.21495
20.22	1.39697
20.31	6.8989
20.4	20.5232
20.49	51.4391
20.58	99.0609
20.67	192.729
20.76	314.147
20.85	423.979
20.94	458.836
21.03	409.074
21.12	315.262
21.21	210.056
21.3	142.282
21.39	109.526
21.48	98.0332
21.57	87.0182
21.66	80.5527
21.75	65.9411
21.84	43.4264
21.93	36.4206
22.02	29.1947
22.11	20.4184
22.2	13.8619
22.29	10.1269
22.38	10.1642
22.47	8.92532
22.56	1.27982
22.65	1.56888
22.74	1.47763
22.83	0.141479
22.92	4.34303
23.01	7.74377
23.1	4.17047
23.19	9.85699
23.28	4.94696
23.37	7.4154
23.46	7.44459
23.55	12.0054
23.64	13.9772
23.73	13.1953
23.82	8.45038
23.91	3.82146
24	9.01903
24.09	11.2054
24.18	24.6055
24.27	48.3728
24.36	63.9102
24.45	76.9981
24.54	82.608
24.63	74.3926
24.72	53.2853
24.81	33.527
24.9	20.1937
24.99	15.2661
25.08	4.40566
25.17	0.925095
25.26	2.18092
25.35	4.22702
25.44	7.21951
25.53	8.97871
25.62	8.5672
25.71	7.31511
25.8	4.93506
25.89	10.4938
25.98	12.2017
26.07	12.7499
26.16	16.8789
26.25	25.6005
26.34	22.2848
26.43	24.959
26.52	16.1665
26.61	16.1206
26.7	9.30943
26.79	5.74867
26.88	2.22697
26.97	1.41589
27.06	3.06064
27.15	7.32858
27.24	6.96648
27.33	1.60669
27.42	1.00378
27.51	0.97551
27.6	2.13431
27.69	2.93964
27.78	1.61079
27.87	3.88049
27.96	1.63559
28.05	3.38881
28.14	6.38521
28.23	9.78612
28.32	9.40198
28.41	10.0815
28.5	6.61783
28.59	10.232
28.68	10.9521
28.77	7.79448
28.86	8.72922
28.95	14.0616
29.04	18.5712
29.13	16.3897
29.22	15.0438
29.31	15.5055
29.4	16.0579
29.49	20.8713
29.58	26.8799
29.67	26.5376
29.76	21.2873
29.85	23.3877
29.94	22.1738
30.03	17.188
30.12	12.1649
30.21	17.061
30.3	15.2162
30.39	10.2367
30.48	8.30064
30.57	11.3717
30.66	9.38747
30.75	12.0744
30.84	7.99893
30.93	12.1124
31.02	5.07024
31.11	10.9563
31.2	15.2488
31.29	13.7611
31.38	9.31885
31.47	13.298
31.56	13.2763
31.65	10.8356
31.74	13.758
31.83	14.775
31.92	9.53065
32.01	13.9543
32.1	19.422
32.19	16.388
32.28	16.8463
32.37	18.8487
32.46	17.102
32.55	10.2101
32.64	11.5236
32.73	16.0893
32.82	11.7659
32.91	11.2175
33	9.96449
33.09	6.51779
33.18	6.26739
33.27	3.77129
33.36	0.48407
33.45	6.34389
33.54	3.32146
33.63	1.25418
33.72	4.54349
33.81	5.90094
33.9	6.66727
33.99	16.0791
34.08	15.4833
34.17	16.2985
34.26	12.4582
34.35	8.70172
34.44	3.33974
34.53	2.56581
34.62	2.00001
34.71	0.750549
34.8	1.51056
34.89	1.00772
34.98	0.286591
35.07	0.208298
35.16	0.923813
35.25	0.714966
35.34	2.47623
35.43	3.96535
35.52	3.06921
35.61	2.48546
35.7	0.188278
35.79	2.07364
35.88	2.65918
35.97	8.49542
36.06	11.7563
36.15	7.81804
36.24	8.63382
36.33	16.5007
36.42	21.7413
36.51	29.6279
36.6	25.7999
36.69	28.367
36.78	22.4855
36.87	19.8834
36.96	11.6831
37.05	12.1798
37.14	2.72917
37.23	5.89578
37.32	6.13789
37.41	3.58792
37.5	2.79227
37.59	9.81609
37.68	11.2855
37.77	8.59076
37.86	10.6056
37.95	17.0031
38.04	8.15665
38.13	9.49808
38.22	18.4181
38.31	7.72784
38.4	0.390945
38.49	6.2731
38.58	11.5644
38.67	21.3613
38.76	24.6274
38.85	18.9369
38.94	19.7111
39.03	17.0972
39.12	10.2508
39.21	10.7609
39.3	9.76532
39.39	4.20375
39.48	0.018738
39.57	6.03722
39.66	8.68516
39.75	4.08186
39.84	2.23567
39.93	3.20462
40.02	11.076
40.11	8.73479
40.2	4.92636
40.29	4.81381
40.38	4.76886
40.47	4.61583
40.56	7.3777
40.65	14.6255
40.74	9.6992
40.83	2.55483
40.92	1.55302
