Measurement: Powder, Xray Data XY Processed
Mineral: Apjohnite
Rruff sample: R060231
Ideal chemistry: Mn^2+^Al_2_(S^6+^O_4_)_4_22H_2_O
Locality: Val d'Adige, Bolzano, Italy
Source: Michael Scott
Description: Colorless acicular crystals
Diffraction sample description: Single crystal, powder profile is calculated
Cell parameters: a: 6.202(1) b: 24.351(5) c: 21.273(4) alpha: 90 beta: 100.269(8) gamma: 90 volume: 3161(1) crystal system: monoclinic
x	intensity
5	0
5.22	0
5.44	0
5.66	0.064
5.88	0
6.1	0
6.32	0
6.54	0
6.76	0
6.98	0
7.2	0.26
7.42	0
7.64	0
7.86	0
8.08	0
8.3	0.004
8.52	0.52
8.74	0
8.96	0
9.18	21.379
9.4	0
9.62	0
9.84	0
10.06	0
10.28	0
10.5	0
10.72	0
10.94	0
11.16	16.114
11.38	0
11.6	0.009
11.82	0
12.04	0
12.26	0
12.48	0
12.7	0
12.92	0
13.14	0.483
13.36	0
13.58	0
13.8	5.326
14.02	0
14.24	0
14.46	0.833
14.68	10.459
14.9	0.052
15.12	4.297
15.34	0.009
15.56	0.015
15.78	0.021
16	0.003
16.22	0.496
16.44	0
16.66	0.093
16.88	2.518
17.1	4.007
17.32	0.067
17.54	0.002
17.76	0.005
17.98	3.844
18.2	20.93
18.42	73.118
18.64	0.117
18.86	0.015
19.08	0.973
19.3	21.171
19.52	10.737
19.74	0
19.96	0
20.18	4.396
20.4	0.316
20.62	71.896
20.84	0
21.06	0.045
21.28	39.606
21.5	11.218
21.72	0.016
21.94	0.214
22.16	4.811
22.38	3.296
22.6	0.012
22.82	9.089
23.04	0.105
23.26	5.041
23.48	22.345
23.7	3.352
23.92	2.155
24.14	1.066
24.36	1.119
24.58	10.049
24.8	0.001
25.02	3.184
25.24	0.008
25.46	28.373
25.68	0.155
25.9	1.017
26.12	0.048
26.34	0.772
26.56	3.902
26.78	3.243
27	3.398
27.22	2.308
27.44	1.437
27.66	0.029
27.88	1.952
28.1	8.359
28.32	0.041
28.54	0.079
28.76	0.522
28.98	6.698
29.2	4.325
29.42	1.559
29.64	0.509
29.86	2.334
30.08	11.419
30.3	0.251
30.52	1.248
30.74	1.868
30.96	7.378
31.18	7.864
31.4	7.332
31.62	3.972
31.84	0.833
32.06	10.272
32.28	7.206
32.5	1.161
32.72	0.234
32.94	4.552
33.16	4.526
33.38	13.626
33.6	0.853
33.82	1.202
34.04	0.216
34.26	17.594
34.48	0.891
34.7	4.621
34.92	11.227
35.14	6.458
35.36	0.492
35.58	6.32
35.8	0.338
36.02	0.658
36.24	4.501
36.46	3.552
36.68	5.275
36.9	2.251
37.12	0.243
37.34	2.891
37.56	3.657
37.78	0.892
38	0.585
38.22	0.47
38.44	1.006
38.66	0.333
38.88	2.043
39.1	3.225
39.32	1.21
39.54	2.688
39.76	1.351
39.98	5.057
40.2	2.906
40.42	1.964
40.64	0.278
40.86	0.184
41.08	2.291
41.3	0.35
41.52	1.071
41.74	1.468
41.96	0.214
42.18	0.164
42.4	2.872
42.62	0.699
42.84	0.883
43.06	3.207
43.28	0.839
43.5	1.196
43.72	0.697
43.94	1.946
44.16	3.681
44.38	0.543
44.6	0.661
44.82	4.552
45.04	2.082
45.26	1.482
45.48	2.272
45.7	0.571
45.92	2.347
46.14	1.841
46.36	4.092
46.58	3.756
46.8	0.88
47.02	0.46
47.24	1.482
47.46	0.478
47.68	2.685
47.9	7.857
48.12	2.263
48.34	12.056
48.56	4.293
48.78	4.917
49	1.65
49.22	0.727
49.44	3.407
49.66	1.237
49.88	2.468
50.1	1.799
50.32	0.988
50.54	1.502
50.76	0.447
50.98	0.38
51.2	4.491
51.42	2.034
51.64	1.929
51.86	0.883
52.08	2.859
52.3	0.701
52.52	0.929
52.74	1.275
52.96	1.567
53.18	0.568
53.4	3.276
53.62	0.842
53.84	1.052
54.06	1.419
54.28	2.035
54.5	0.647
54.72	5.313
54.94	2.311
55.16	1.315
55.38	0.48
55.6	0.369
55.82	0.685
56.04	1.812
56.26	0.577
56.48	1.475
56.7	0.594
56.92	1.956
57.14	0.703
57.36	0.85
57.58	1.529
57.8	0.962
58.02	0.73
58.24	0.865
58.46	0.464
58.68	2.862
58.9	0.361
59.12	0.227
59.34	1.961
59.56	0.986
59.78	1.164
60	0.774
60.22	0.721
60.44	1.08
60.66	2.731
60.88	0.494
61.1	2.569
61.32	1.418
61.54	1.551
61.76	1.061
61.98	0.629
62.2	2.777
62.42	0.976
62.64	0.212
62.86	0.757
63.08	1.304
63.3	0.69
63.52	0.577
63.74	0.896
63.96	0.875
64.18	0.276
64.4	0.819
64.62	0.953
64.84	0.796
65.06	0.97
65.28	0.569
65.5	0.243
65.72	0.477
65.94	0.808
66.16	0.403
66.38	1.24
66.6	1.478
66.82	1.33
67.04	1.867
67.26	0.844
67.48	0.712
67.7	0.926
67.92	1.839
68.14	2.001
68.36	0.795
68.58	0.063
68.8	0.719
69.02	0.927
69.24	1.023
69.46	0.681
69.68	0.096
69.9	2.001
70.12	1.305
70.34	0.443
70.56	0.345
70.78	0.34
71	0.446
71.22	0.319
71.44	0.694
71.66	0.433
71.88	0.502
72.1	0.534
72.32	0.425
72.54	0.347
72.76	0.189
72.98	0.413
73.2	0.814
73.42	0.421
73.64	0.211
73.86	0.303
74.08	0.354
74.3	0.291
74.52	0.51
74.74	0.704
74.96	0.467
75.18	0.695
75.4	0.591
75.62	0.427
75.84	1.042
76.06	1.126
76.28	1.172
76.5	0.579
76.72	0.268
76.94	0.552
77.16	0.624
77.38	1.253
77.6	0.863
77.82	0.693
78.04	0.537
78.26	0.636
78.48	0.683
78.7	0.716
78.92	0.349
79.14	0.319
79.36	0.474
79.58	1.149
79.8	0.679
80.02	0.387
80.24	0.593
80.46	0.622
80.68	0.704
80.9	0.332
81.12	0.568
81.34	0.595
81.56	0.756
81.78	0.425
82	0.226
82.22	0.32
82.44	0.566
82.66	1.307
82.88	0.58
83.1	0.47
83.32	0.481
83.54	0.818
83.76	0.528
83.98	0.814
84.2	0.615
84.42	0.721
84.64	0.593
84.86	0.579
85.08	0.659
85.3	0.362
85.52	0.169
85.74	0.515
85.96	0.299
86.18	0.381
86.4	0.433
86.62	0.52
86.84	0.703
87.06	0.716
87.28	0.428
87.5	0.354
87.72	0.359
87.94	0.18
88.16	0.157
88.38	0.268
88.6	0.42
88.82	0.433
89.04	0.864
89.26	0.516
89.48	0.206
89.7	0.494
89.92	0.427
