Measurement: Powder, Xray Data XY Processed
Mineral: Aragonite
Rruff sample: R040078
Ideal chemistry: CaCO_3_
Locality: Molina, Aragon, Spain
Source: University of Arizona Mineral Museum
Description: Orange pseudohexagonal prisms
Diffraction sample description: Powder
Measured chemistry: Ca_1.00_CO_3_
Cell parameters: a: 4.9632(5) b: 7.9673(7) c: 5.7442(4) alpha: 90. beta: 90. gamma: 90. volume: 227.15(2) crystal system: orthorhombic
x	intensity
5	0
5.22	9.86
5.44	8.042
5.66	9.113
5.88	3.45
6.1	19.239
6.32	3.883
6.54	6.651
6.76	9.255
6.98	8.79
7.2	17.291
7.42	2.9
7.64	2.819
7.86	12.193
8.08	10.527
8.3	7
8.52	11.437
8.74	5.527
8.96	8.84
9.18	2.206
9.4	3.573
9.62	0.119
9.84	7.483
10.06	2.031
10.28	7.207
10.5	3.626
10.72	4.44
10.94	7.655
11.16	5.857
11.38	1.806
11.6	5.265
11.82	9.386
12.04	2.341
12.26	4.341
12.48	15.119
12.7	2.221
12.92	9.183
13.14	5.263
13.36	1.472
13.58	2.596
13.8	4.996
14.02	7.917
14.24	9.048
14.46	7.374
14.68	4.508
14.9	5.544
15.12	6.728
15.34	1.89
15.56	1.093
15.78	6.898
16	5.086
16.22	4.994
16.44	10.202
16.66	6.555
16.88	2.381
17.1	4.407
17.32	3.626
17.54	5.665
17.76	4.7
17.98	0.813
18.2	6.835
18.42	6.13
18.64	12.217
18.86	2.183
19.08	10.136
19.3	5.249
19.52	2.533
19.74	3.56
19.96	2.676
20.18	4.793
20.4	5.899
20.62	2.079
20.84	1.042
21.06	5.399
21.28	7.408
21.5	6.362
21.72	6.627
21.94	4.622
22.16	0.632
22.38	4.674
22.6	4.671
22.82	3.705
23.04	8.863
23.26	5.804
23.48	1.328
23.7	13.371
23.92	0.483
24.14	2.237
24.36	0.064
24.58	12.334
24.8	8.773
25.02	1.106
25.24	0.712
25.46	10.227
25.68	8.416
25.9	3.764
26.12	50.976
26.34	294.293
26.56	20.849
26.78	15.871
27	7.27
27.22	140.182
27.44	32.796
27.66	7.648
27.88	5.365
28.1	11.05
28.32	10.597
28.54	1.887
28.76	5.505
28.98	10.845
29.2	8.819
29.42	8.613
29.64	10.618
29.86	2.729
30.08	4.447
30.3	0.328
30.52	8.485
30.74	0.877
30.96	4.83
31.18	28.757
31.4	0.486
31.62	0.623
31.84	4.084
32.06	5.343
32.28	8.148
32.5	4.977
32.72	20.076
32.94	19.147
33.16	381.684
33.38	25.974
33.6	10.12
33.82	0.651
34.04	2.723
34.26	1.827
34.48	2.698
34.7	0.572
34.92	0.667
35.14	9.827
35.36	8.16
35.58	4.859
35.8	2.772
36.02	31.337
36.24	150.299
36.46	15.686
36.68	7.944
36.9	0.02
37.12	4.343
37.34	26.946
37.56	5.742
37.78	31.717
38	154.757
38.22	24.387
38.44	91.452
38.66	135.349
38.88	14.026
39.1	2.989
39.32	1.147
39.54	1.906
39.76	1.721
39.98	3.252
40.2	0.317
40.42	5.933
40.64	9.709
40.86	4.525
41.08	11.478
41.3	39.605
41.52	10.546
41.74	6.234
41.96	3.082
42.18	4.185
42.4	1.693
42.62	2.534
42.84	24.8
43.06	50.316
43.28	8.608
43.5	6.797
43.72	8.684
43.94	1.399
44.16	6.191
44.38	11.87
44.6	3.502
44.82	1.085
45.04	5.622
45.26	3.808
45.48	8.018
45.7	38.916
45.92	233.626
46.14	40.559
46.36	6.578
46.58	4.618
46.8	0.454
47.02	6.505
47.24	0.501
47.46	8.463
47.68	0.408
47.9	9.267
48.12	15.158
48.34	105.389
48.56	74.095
48.78	15.988
49	11.897
49.22	0.058
49.44	12.193
49.66	7.421
49.88	13.725
50.1	26.08
50.32	75.955
50.54	13.562
50.76	1.465
50.98	1.545
51.2	1.507
51.42	2.47
51.64	5.457
51.86	2.421
52.08	4.316
52.3	17.281
52.52	144.195
52.74	28.073
52.96	35.237
53.18	35.553
53.4	1.067
53.62	0.5
53.84	3.978
54.06	6.575
54.28	1.389
54.5	2.984
54.72	3.298
54.94	7.207
55.16	8.395
55.38	3.548
55.6	3.562
55.82	9.601
56.04	4.42
56.26	0.623
56.48	3.533
56.7	3.337
56.92	10.675
57.14	7.715
57.36	8.146
57.58	3.203
57.8	3.243
58.02	6.284
58.24	5.263
58.46	2.183
58.68	0.038
58.9	1.987
59.12	6.785
59.34	18.344
59.56	8.422
59.78	1.291
60	1.311
60.22	7.434
60.44	12.499
60.66	1.497
60.88	6.435
61.1	4.42
61.32	6.604
61.54	3.531
61.76	7.371
61.98	1.01
62.2	2.713
62.42	1.535
62.64	0.493
62.86	7.482
63.08	10.609
63.3	11.716
63.52	12.941
63.74	4.05
63.96	2.334
64.18	0.728
64.4	5.143
64.62	2.477
64.84	2.664
65.06	6.701
65.28	3.72
65.5	0.311
65.72	2.316
65.94	5.563
66.16	18.581
66.38	14.711
66.6	17.439
66.82	10.277
67.04	1.232
67.26	8.297
67.48	1.273
67.7	4.091
67.92	5.922
68.14	4.693
68.36	6.509
68.58	7.08
68.8	2.6
69.02	15.567
69.24	20.384
69.46	11.205
69.68	12.106
69.9	1.112
70.12	9.493
70.34	1.746
70.56	0.17
70.78	0.355
71	3.156
71.22	8.462
71.44	0.267
71.66	4.999
71.88	2.15
72.1	10.296
72.32	6.458
72.54	6.562
72.76	5.571
72.98	0.4
73.2	3.399
73.42	5.158
73.64	2.092
73.86	5.992
74.08	0.885
74.3	4.793
74.52	2.618
74.74	6.544
74.96	5.19
75.18	13.741
75.4	13.595
75.62	12.185
75.84	2.939
76.06	3.624
76.28	4.286
76.5	14.234
76.72	13.893
76.94	18.526
77.16	28.204
77.38	18.88
77.6	1.378
77.82	4.132
78.04	20.262
78.26	15.21
78.48	0.769
78.7	6.267
78.92	2.099
79.14	8.44
79.36	23.917
79.58	13.246
79.8	2.07
80.02	8.237
80.24	2.548
80.46	3.573
80.68	13.883
80.9	7.098
81.12	8.162
81.34	3.216
81.56	10.121
81.78	1.878
82	9.742
82.22	8.757
82.44	17.787
82.66	7.896
82.88	3.911
83.1	4.091
83.32	8.269
83.54	8.6
83.76	5.808
83.98	0.872
84.2	0.932
84.42	2.021
84.64	4.161
84.86	4.269
85.08	2.103
85.3	9.119
85.52	6.882
85.74	1.833
85.96	5.909
86.18	4.988
86.4	13.236
86.62	6.354
86.84	5.466
87.06	0.534
87.28	1.453
87.5	2.483
87.72	2.622
87.94	4.685
88.16	9.515
88.38	11.376
88.6	1.154
88.82	7.173
89.04	9.112
89.26	5.206
89.48	6.175
89.7	4.223
89.92	4.715
