Measurement: Powder, Xray Data XY Processed
Mineral: Aragonite
Rruff sample: R060195
Ideal chemistry: CaCO_3_
Locality: Cicov Hill, Horenec, Czech Republic
Source: Marcus Origlieri
Description: Colorless transparent elongated prismatic crystal
Diffraction sample description: Powder
Measured chemistry: Ca_1.00_CO_3_
Cell parameters: a: 4.9608(3) b: 7.9688(4) c: 5.7414(2) alpha: 90 beta: 90 gamma: 90 volume: 226.97(1) crystal system: orthorhombic
x	intensity
5	0
5.22	3.011
5.44	8.526
5.66	21.254
5.88	13.516
6.1	9.747
6.32	8.461
6.54	10.145
6.76	0.109
6.98	8.708
7.2	1.449
7.42	9.024
7.64	9.57
7.86	7.277
8.08	1.507
8.3	1.246
8.52	3.146
8.74	5.456
8.96	4.759
9.18	7.254
9.4	7.404
9.62	6.58
9.84	5.202
10.06	7.193
10.28	7.214
10.5	2.413
10.72	1.543
10.94	1.765
11.16	3.946
11.38	1.235
11.6	4.369
11.82	5.663
12.04	8.857
12.26	1.005
12.48	2.243
12.7	4.443
12.92	0.747
13.14	4.875
13.36	3.069
13.58	2.144
13.8	5.171
14.02	6.037
14.24	3.042
14.46	0.872
14.68	1.853
14.9	5.721
15.12	0.713
15.34	6.642
15.56	0.696
15.78	3.764
16	8.867
16.22	4.004
16.44	2.067
16.66	7.094
16.88	0.866
17.1	3.207
17.32	2.266
17.54	4.275
17.76	1.213
17.98	4.157
18.2	2.02
18.42	5.909
18.64	6.835
18.86	6.822
19.08	5.821
19.3	4.771
19.52	0.889
19.74	4.002
19.96	7.087
20.18	2.208
20.4	3.27
20.62	3.297
20.84	1.3
21.06	2.414
21.28	2.411
21.5	5.447
21.72	0.419
21.94	3.226
22.16	4.113
22.38	1.147
22.6	1.017
22.82	4.014
23.04	4.02
23.26	2.218
23.48	5.065
23.7	5.036
23.92	4.223
24.14	1.113
24.36	4.156
24.58	0.909
24.8	3.58
25.02	0.269
25.24	1.771
25.46	4.385
25.68	3.854
25.9	0.433
26.12	21.109
26.34	169.774
26.56	18.75
26.78	7.988
27	11.077
27.22	63.286
27.44	19.681
27.66	0.06
27.88	4.494
28.1	2.768
28.32	5.051
28.54	2.341
28.76	6.565
28.98	0.891
29.2	2.669
29.42	5.843
29.64	3.976
29.86	6.844
30.08	3.78
30.3	1.731
30.52	5.848
30.74	4.118
30.96	8.072
31.18	23.113
31.4	6.787
31.62	1.468
31.84	2.731
32.06	4.003
32.28	4.836
32.5	3.687
32.72	8.501
32.94	7.442
33.16	141.279
33.38	18.433
33.6	3.471
33.82	1.66
34.04	3.983
34.26	2.124
34.48	3.309
34.7	1.352
34.92	1.328
35.14	4.114
35.36	3.987
35.58	1.762
35.8	10.531
36.02	15.493
36.24	74.037
36.46	9.441
36.68	2.978
36.9	5.639
37.12	7.398
37.34	29.219
37.56	4.15
37.78	18.137
38	63.232
38.22	12.113
38.44	59.741
38.66	67.363
38.88	7.766
39.1	3.332
39.32	4.758
39.54	1.774
39.76	3.603
39.98	0.168
40.2	4.016
40.42	5.053
40.64	1.941
40.86	5.512
41.08	5.505
41.3	15.562
41.52	0.579
41.74	6.263
41.96	3.276
42.18	4.257
42.4	0.675
42.62	1.608
42.84	6.643
43.06	24.996
43.28	10.369
43.5	4.169
43.72	8.022
43.94	3.961
44.16	2.934
44.38	3.836
44.6	6.567
44.82	5.287
45.04	0.801
45.26	0.417
45.48	7.054
45.7	10.506
45.92	123.358
46.14	32.507
46.36	6.801
46.58	5.737
46.8	0.044
47.02	0.109
47.24	1.718
47.46	4.431
47.68	1.564
47.9	4.813
48.12	7.978
48.34	50.258
48.56	42.065
48.78	10.213
49	5.036
49.22	4.132
49.44	3.198
49.66	0.289
49.88	8.57
50.1	8.575
50.32	48.75
50.54	6.818
50.76	7.748
50.98	1.563
51.2	2.187
51.42	0.084
51.64	0.955
51.86	3.809
52.08	3.616
52.3	12.375
52.52	68.58
52.74	13.422
52.96	22.215
53.18	22.351
53.4	4.536
53.62	3.735
53.84	1.994
54.06	5.252
54.28	3.694
54.5	2.886
54.72	3.113
54.94	1.988
55.16	5.056
55.38	4.17
55.6	4.177
55.82	2.228
56.04	1.251
56.26	9.356
56.48	3.463
56.7	5.32
56.92	1.433
57.14	3.468
57.36	1.748
57.58	3.89
57.8	0.044
58.02	0.979
58.24	1.029
58.46	1.068
58.68	3.062
58.9	1.941
59.12	4.973
59.34	8.9
59.56	6.809
59.78	2.709
60	1.711
60.22	5.718
60.44	0.339
60.66	9.607
60.88	0.69
61.1	0.482
61.32	3.619
61.54	6.52
61.76	2.407
61.98	6.336
62.2	2.177
62.42	4.036
62.64	1.993
62.86	7.03
63.08	6.218
63.3	3.199
63.52	6.497
63.74	5.447
63.96	1.531
64.18	2.715
64.4	0.789
64.62	2.887
64.84	1.916
65.06	5.864
65.28	1.837
65.5	7.639
65.72	3.509
65.94	3.271
66.16	12.159
66.38	5.227
66.6	6.238
66.82	7.286
67.04	3.184
67.26	2.203
67.48	3.176
67.7	0.86
67.92	1.087
68.14	0.973
68.36	0.945
68.58	2.861
68.8	10.785
69.02	7.657
69.24	4.555
69.46	2.753
69.68	1.848
69.9	0.956
70.12	2.081
70.34	9.303
70.56	0.581
70.78	2.698
71	6.88
71.22	2.893
71.44	1.006
71.66	0.148
71.88	4.069
72.1	4.148
72.32	3.224
72.54	2.234
72.76	6.161
72.98	2.042
73.2	3.058
73.42	4.073
73.64	7.151
73.86	1.134
74.08	4.033
74.3	1.923
74.52	1.786
74.74	2.752
74.96	1.779
75.18	1.789
75.4	6.596
75.62	5.393
75.84	5.088
76.06	2.786
76.28	2.481
76.5	6.408
76.72	7.299
76.94	9.141
77.16	12.881
77.38	5.642
77.6	2.419
77.82	5.507
78.04	13.841
78.26	2.981
78.48	3.052
78.7	1.182
78.92	1.263
79.14	8.323
79.36	5.479
79.58	6.574
79.8	5.652
80.02	0.734
80.24	2.563
80.46	4.499
80.68	5.684
80.9	8.859
81.12	3.882
81.34	3.817
81.56	1.846
81.78	5.957
82	1.855
82.22	9.195
82.44	15.286
82.66	6.277
82.88	3.433
83.1	6.509
83.32	8.435
83.54	5.687
83.76	4.782
83.98	0.799
84.2	0.763
84.42	3.624
84.64	1.67
84.86	6.659
85.08	2.585
85.3	2.465
85.52	3.39
85.74	4.525
85.96	5.31
86.18	9.393
86.4	5.327
86.62	4.365
86.84	5.349
87.06	4.291
87.28	4.233
87.5	2.133
87.72	4.093
87.94	5.1
88.16	3.053
88.38	3.026
88.6	1.068
88.82	2.179
89.04	1.189
89.26	6.371
89.48	5.646
89.7	0.193
89.92	8.797
