Measurement: Powder, Xray Data XY Processed
Mineral: Ardealite
Rruff sample: R060233
Ideal chemistry: Ca_2_(PO_3_OH)(S^6+^O_4_)4H_2_O
Locality: Moorba Cave, Jurien Bay, Western Australia, Australia
Source: Michael Scott
Description: Tan colored powder
Diffraction sample description: Powder
Measured chemistry: (Ca_1.98_Fe_0.02_)_Σ=2_(HP_1.00_O_4_)(S_1.00_O_4_)·4H_2_O ; H not measured but assumed
Cell parameters: a: 5.7220(9) b: 31.019(5) c: 6.255(1) alpha: 90 beta: 117.34(2) gamma: 90 volume: 986.2(0) crystal system: monoclinic
x	intensity
5	0
5.22	5.116
5.44	22.32
5.66	12.689
5.88	2.403
6.1	6.704
6.32	11.145
6.54	12.127
6.76	2.516
6.98	5.92
7.2	4.717
7.42	5.173
7.64	6.148
7.86	29.566
8.08	4.651
8.3	16.862
8.52	3.687
8.74	7.305
8.96	8.466
9.18	8.27
9.4	9.053
9.62	9.237
9.84	7.531
10.06	7.602
10.28	23.586
10.5	7.742
10.72	5.717
10.94	2.815
11.16	15.508
11.38	237.32
11.6	35.839
11.82	8.401
12.04	8.779
12.26	3.265
12.48	8.872
12.7	13.525
12.92	4.302
13.14	1.13
13.36	12.349
13.58	0.235
13.8	7.073
14.02	4.494
14.24	8.69
14.46	9.155
14.68	8.449
14.9	9.645
15.12	6.973
15.34	1.885
15.56	2.844
15.78	1.245
16	3.291
16.22	9.303
16.44	4.193
16.66	9.007
16.88	0.915
17.1	1.862
17.32	1.623
17.54	6.468
17.76	4.499
17.98	5.423
18.2	1.16
18.42	2.924
18.64	0.884
18.86	2.725
19.08	6.715
19.3	8.075
19.52	33.714
19.74	2.623
19.96	4.054
20.18	1.317
20.4	28.947
20.62	21.717
20.84	37.827
21.06	30.803
21.28	16.478
21.5	25.162
21.72	6.165
21.94	4.342
22.16	5.811
22.38	10.021
22.6	73.752
22.82	20.358
23.04	35.787
23.26	1.47
23.48	4.981
23.7	2.727
23.92	2.284
24.14	0.791
24.36	6.137
24.58	10.235
24.8	6.678
25.02	2.494
25.24	5.347
25.46	1.29
25.68	4.21
25.9	3.124
26.12	6.945
26.34	9.854
26.56	12.868
26.78	40.581
27	3.993
27.22	2.153
27.44	0.733
27.66	4.373
27.88	0.633
28.1	2.317
28.32	28.308
28.54	8.121
28.76	18.962
28.98	48.75
29.2	2.878
29.42	2.232
29.64	5.645
29.86	16.799
30.08	27.82
30.3	4.999
30.52	0.272
30.74	3.482
30.96	11.62
31.18	7.85
31.4	54.289
31.62	10.617
31.84	32.348
32.06	0.202
32.28	19.488
32.5	5.27
32.72	27.21
32.94	9.857
33.16	13.381
33.38	4.932
33.6	2.591
33.82	12.378
34.04	3.607
34.26	11.537
34.48	4.608
34.7	7.257
34.92	0.063
35.14	8.663
35.36	25.376
35.58	3.163
35.8	22.722
36.02	7.427
36.24	2.052
36.46	10.114
36.68	22.283
36.9	16.8
37.12	7.186
37.34	7.883
37.56	0.974
37.78	7.642
38	2.085
38.22	6.524
38.44	1.887
38.66	0.811
38.88	10.592
39.1	11.762
39.32	8.6
39.54	13.857
39.76	0.891
39.98	4.819
40.2	7.544
40.42	8.465
40.64	1.25
40.86	1.958
41.08	2.388
41.3	7.806
41.52	11.391
41.74	7.949
41.96	7.147
42.18	3.443
42.4	0.91
42.62	10.464
42.84	17.128
43.06	28.149
43.28	12.442
43.5	10.68
43.72	15.891
43.94	8.099
44.16	2.262
44.38	3.719
44.6	13.845
44.82	4.308
45.04	4.454
45.26	5.845
45.48	6.908
45.7	5.486
45.92	5.512
46.14	6.339
46.36	12.231
46.58	3.22
46.8	5.384
47.02	18.42
47.24	13.391
47.46	8.549
47.68	3.234
47.9	6.416
48.12	3.834
48.34	1.443
48.56	8.953
48.78	5.081
49	13.202
49.22	13.858
49.44	1.065
49.66	2.784
49.88	15.761
50.1	10.881
50.32	25.812
50.54	20.695
50.76	7.27
50.98	5.045
51.2	1.483
51.42	8.635
51.64	2.313
51.86	4.746
52.08	5.881
52.3	2.973
52.52	4.025
52.74	17.237
52.96	13.154
53.18	3.431
53.4	6.436
53.62	0.746
53.84	10.213
54.06	3.366
54.28	5.701
54.5	3.769
54.72	9.917
54.94	8.826
55.16	6.195
55.38	1.417
55.6	4.589
55.82	3.897
56.04	5.97
56.26	4.319
56.48	5.361
56.7	1.806
56.92	1.012
57.14	5.104
57.36	1.177
57.58	5.223
57.8	9.06
58.02	8.147
58.24	6.987
58.46	0.954
58.68	8.759
58.9	7.692
59.12	2.286
59.34	4.366
59.56	13.544
59.78	9.641
60	11.601
60.22	4.714
60.44	5.676
60.66	2.825
60.88	2.848
61.1	3.039
61.32	2.097
61.54	3.102
61.76	7.114
61.98	5.026
62.2	5.097
62.42	5.823
62.64	4.716
62.86	3.68
63.08	2.67
63.3	1.452
63.52	2.441
63.74	3.374
63.96	1.344
64.18	0.124
64.4	2.979
64.62	5.062
64.84	4.369
65.06	3.485
65.28	7.509
65.5	1.427
65.72	4.581
65.94	7.961
66.16	3.897
66.38	9.853
66.6	2.812
66.82	2.772
67.04	4.447
67.26	7.118
67.48	5.049
67.7	10.041
67.92	0.965
68.14	4.906
68.36	2.24
68.58	8.481
68.8	2.676
69.02	3.977
69.24	4.121
69.46	5.232
69.68	5.251
69.9	4.308
70.12	7.329
70.34	4.375
70.56	9.072
70.78	2.951
71	4.828
71.22	3.904
71.44	4.8
71.66	0.14
71.88	2.92
72.1	2.987
72.32	1.033
72.54	9.254
72.76	2.134
72.98	3.985
73.2	6.989
73.42	6.894
73.64	2.643
73.86	2.447
74.08	0.345
74.3	2.237
74.52	6.214
74.74	10.223
74.96	3.947
75.18	0.757
75.4	2.437
75.62	6.694
75.84	5.901
76.06	8.104
76.28	3.313
76.5	7.437
76.72	1.355
76.94	5.925
77.16	12.132
77.38	4.173
77.6	3.013
77.82	0.037
78.04	5.663
78.26	7.68
78.48	3.541
78.7	5.553
78.92	0.667
79.14	3.223
79.36	0.891
79.58	3.845
79.8	1.999
80.02	7.105
80.24	7.064
80.46	6.162
80.68	5.019
80.9	4.946
81.12	5.837
81.34	3.714
81.56	10.789
81.78	3.867
82	7.829
82.22	0.594
82.44	3.422
82.66	1.411
82.88	6.261
83.1	1.743
83.32	3.278
83.54	12.355
83.76	4.69
83.98	12.53
84.2	0.693
84.42	2.819
84.64	4.886
84.86	5.959
85.08	8.003
85.3	1.13
85.52	5.315
85.74	5.306
85.96	0.704
86.18	1.204
86.4	3.13
86.62	3.032
86.84	5.893
87.06	8.846
87.28	8.744
87.5	2.621
87.72	0.568
87.94	0.415
88.16	0.438
88.38	6.467
88.6	2.393
88.82	0.54
89.04	0.39
89.26	0.683
89.48	7.879
89.7	0.754
89.92	0.889
