Measurement: Powder, Xray Data XY Processed
Mineral: Arfvedsonite
Rruff sample: R050514
Ideal chemistry: NaNa_2_(Fe^2+^_4_Fe^3+^)Si_8_O_22_(OH)_2_
Locality: unknown
Source: Frank Hawthorne
Description: Small black fragments
Diffraction sample description: Powder
Measured chemistry: (Na_2.44_K_0.22_Ca_0.17_[box]_0.17_)_Σ=3_(Fe^2+^_2.55_Fe^3+^_0.94_Mg_0.80_Mn_0.55_Ti_0.09_Al_0.07_)_Σ=5_(Si_7.81_Al_0.19_)_8_O_22_((OH)_1.40_F_0.60_)_Σ=2_
Cell parameters: a: 9.846(3) b: 18.047(5) c: 5.322(2) alpha: 90 beta: 103.65(2) gamma: 90 volume: 919.0(0) crystal system: monoclinic
x	intensity
5	0
5.22	24.8234
5.44	5.85279
5.66	25.9928
5.88	19.7691
6.1	8.20948
6.32	28.9347
6.54	27.6092
6.76	17.5232
6.98	17.8808
7.2	10.3521
7.42	13.0332
7.64	18.0426
7.86	5.93202
8.08	20.0485
8.3	0.461189
8.52	12.765
8.74	13.6017
8.96	4.56564
9.18	15.2046
9.4	8.24268
9.62	19.2539
9.84	19.6432
10.06	18.6963
10.28	20.5455
10.5	151.535
10.72	5.40974
10.94	13.2935
11.16	1.64436
11.38	8.74246
11.6	4.73405
11.82	28.3353
12.04	21.2088
12.26	8.66875
12.48	7.56114
12.7	31.7889
12.92	20.5454
13.14	26.0036
13.36	12.9857
13.58	5.83768
13.8	20.971
14.02	0.308556
14.24	18.9605
14.46	32.1504
14.68	14.6001
14.9	5.6536
15.12	12.2994
15.34	7.87526
15.56	17.2141
15.78	26.3897
16	32.9401
16.22	29.7334
16.44	12.8825
16.66	23.5002
16.88	23.6721
17.1	15.099
17.32	8.0996
17.54	8.9734
17.76	33.6082
17.98	19.5333
18.2	23.1191
18.42	32.5823
18.64	6.04886
18.86	5.0881
19.08	5.85569
19.3	21.2106
19.52	24.1742
19.74	40.7313
19.96	10.2414
20.18	28.813
20.4	23.082
20.62	27.5013
20.84	22.1455
21.06	25.4902
21.28	25.9848
21.5	27.2111
21.72	6.38222
21.94	24.315
22.16	8.83075
22.38	2.88948
22.6	14.3595
22.82	25.1023
23.04	18.0469
23.26	7.75532
23.48	13.4199
23.7	21.69
23.92	23.2741
24.14	17.0857
24.36	29.3118
24.58	33.1474
24.8	6.71203
25.02	22.2784
25.24	18.6028
25.46	7.87939
25.68	24.5412
25.9	18.1174
26.12	28.5694
26.34	21.0606
26.56	19.0119
26.78	9.01219
27	22.4811
27.22	15.7378
27.44	15.1764
27.66	15.6831
27.88	11.7475
28.1	24.8353
28.32	42.498
28.54	47.4526
28.76	41.0796
28.98	23.4843
29.2	16.8117
29.42	5.09069
29.64	26.8633
29.86	15.853
30.08	15.9579
30.3	19.393
30.52	12.0303
30.74	3.99246
30.96	16.5602
31.18	14.3177
31.4	10.0609
31.62	24.5633
31.84	21.1906
32.06	13.5851
32.28	0.481422
32.5	26.6353
32.72	21.4943
32.94	61.2276
33.16	26.6179
33.38	10.5552
33.6	12.4567
33.82	5.36069
34.04	20.6685
34.26	0.127785
34.48	18.1179
34.7	27.499
34.92	11.7029
35.14	23.0711
35.36	47.3243
35.58	0.720207
35.8	10.343
36.02	5.26903
36.24	35.1332
36.46	16.5837
36.68	10.93
36.9	0.005478
37.12	24.283
37.34	6.46995
37.56	22.5372
37.78	17.4601
38	30.3216
38.22	18.8655
38.44	33.1611
38.66	27.9691
38.88	17.1081
39.1	15.6838
39.32	12.2643
39.54	9.73916
39.76	20.4571
39.98	22.8867
40.2	19.1189
40.42	7.20195
40.64	27.3598
40.86	25.5191
41.08	12.0953
41.3	8.98595
41.52	27.5697
41.74	11.6295
41.96	4.87233
42.18	17.4065
42.4	7.3661
42.62	10.8193
42.84	11.8566
43.06	24.1554
43.28	5.56402
43.5	12.7534
43.72	10.8375
43.94	18.8411
44.16	15.4975
44.38	15.8496
44.6	10.2541
44.82	18.4745
45.04	14.2058
45.26	24.5449
45.48	6.95327
45.7	9.74219
45.92	24.3115
46.14	20.5539
46.36	9.96024
46.58	11.4937
46.8	0.538849
47.02	19.5147
47.24	9.69234
47.46	6.32736
47.68	9.45439
47.9	19.0688
48.12	27.8992
48.34	20.8632
48.56	19.0166
48.78	8.22478
49	19.3446
49.22	31.4637
49.44	16.2396
49.66	26.9794
49.88	23.8216
50.1	33.5909
50.32	10.1843
50.54	26.4958
50.76	23.8631
50.98	25.1945
51.2	6.53733
51.42	7.48124
51.64	1.70425
51.86	21.9917
52.08	18.0354
52.3	10.7982
52.52	9.8476
52.74	16.6445
52.96	30.013
53.18	18.794
53.4	13.3761
53.62	15.2387
53.84	20.2374
54.06	6.11559
54.28	20.943
54.5	17.6394
54.72	16.3266
54.94	1.08771
55.16	19.3961
55.38	23.9138
55.6	13.5109
55.82	7.2784
56.04	14.1216
56.26	30.9105
56.48	4.87135
56.7	4.09528
56.92	38.1335
57.14	1.98476
57.36	18.6227
57.58	29.7272
57.8	21.4938
58.02	11.75
58.24	28.3058
58.46	18.8047
58.68	16.7222
58.9	33.7205
59.12	11.63
59.34	25.0941
59.56	17.323
59.78	23.7598
60	12.4238
60.22	18.7767
60.44	22.2899
60.66	5.2766
60.88	22.9304
61.1	27.3216
61.32	3.63125
61.54	22.3303
61.76	20.7632
61.98	25.8404
62.2	17.5871
62.42	0.913849
62.64	34.2241
62.86	27.7298
63.08	8.55578
63.3	17.8916
63.52	19.3091
63.74	25.1334
63.96	14.7656
64.18	23.2515
64.4	22.2264
64.62	5.79166
64.84	20.8232
65.06	6.96654
65.28	25.8737
65.5	11.7049
65.72	0.590073
65.94	18.2603
66.16	12.7369
66.38	26.1138
66.6	6.40907
66.82	14.6969
67.04	13.912
67.26	0.404572
67.48	19.1265
67.7	20.6369
67.92	19.5604
68.14	37.1647
68.36	28.0779
68.58	6.77409
68.8	23.2919
69.02	9.13024
69.24	15.0755
69.46	7.44087
69.68	7.57911
69.9	7.90264
70.12	12.0019
70.34	12.8904
70.56	26.8818
70.78	27.026
71	14.5988
71.22	5.22749
71.44	12.1067
71.66	20.5111
71.88	33.2243
72.1	16.763
72.32	13.861
72.54	12.6772
72.76	10.3251
72.98	33.7234
73.2	10.9629
73.42	29.2578
73.64	10.3048
73.86	5.07226
74.08	11.6445
74.3	21.6591
74.52	23.1105
74.74	19.8254
74.96	18.2695
75.18	13.5048
75.4	33.8513
75.62	15.372
75.84	23.263
76.06	17.4873
76.28	16.2672
76.5	11.2495
76.72	18.994
76.94	4.80658
77.16	11.5411
77.38	13.701
77.6	2.3561
77.82	7.06233
78.04	1.68647
78.26	21.6562
78.48	5.90105
78.7	15.8285
78.92	7.0344
79.14	14.0931
79.36	6.3545
79.58	11.3141
79.8	9.4346
80.02	1.41737
80.24	4.44912
80.46	18.7268
80.68	5.13649
80.9	17.1039
81.12	28.5601
81.34	13.3733
81.56	11.6021
81.78	0.371918
82	12.8302
82.22	28.2463
82.44	14.6716
82.66	20.8712
82.88	11.4224
83.1	5.58662
83.32	32.7899
83.54	19.3083
83.76	9.58979
83.98	19.3226
84.2	31.8086
84.42	21.3438
84.64	18.5208
84.86	17.8411
85.08	17.9908
85.3	15.4333
85.52	13.5805
85.74	7.48538
85.96	20.0074
86.18	21.3455
86.4	2.08087
86.62	6.54272
86.84	3.82009
87.06	31.8168
87.28	15.0526
87.5	7.36488
87.72	7.06448
87.94	7.7532
88.16	5.50679
88.38	17.4578
88.6	7.43948
88.82	15.9716
89.04	7.61979
89.26	16.6765
89.48	10.1488
89.7	16.094
89.92	22.0998
