Measurement: Powder, Xray Data XY Processed
Mineral: Argentojarosite
Rruff sample: R060098
Ideal chemistry: Ag^1+^Fe^3+^_3_(S^6+^O_4_)_2_(OH)_6_
Locality: Tintic Standard mine, Dividend, Utah, USA
Source: University of Arizona Mineral Museum
Description: Coating of yellowish-brown flat hexagonal plates
Diffraction sample description: Powder
Measured chemistry: Ag_1.00_Fe^3+^_3.00_(S_1.00_O_4_)_2_(OH)_6_
Cell parameters: a: 7.3377(3) b: 7.3377(3) c: 16.5428(7) alpha: 90 beta: 90 gamma: 120 volume: 771.37(6) crystal system: hexagonal
x	intensity
5	0
5.22	30.999
5.44	13.059
5.66	16.637
5.88	23.82
6.1	11.398
6.32	19.258
6.54	11.834
6.76	24.294
6.98	4.467
7.2	8.06
7.42	8.77
7.64	8.277
7.86	12.796
8.08	8.816
8.3	14.632
8.52	26.576
8.74	3.444
8.96	11.894
9.18	8.392
9.4	20.049
9.62	22.897
9.84	38.187
10.06	7.961
10.28	12.011
10.5	9.84
10.72	11.51
10.94	9.66
11.16	14.138
11.38	16.413
11.6	19.56
11.82	21.861
12.04	17.538
12.26	11.037
12.48	7.37
12.7	12.805
12.92	3.746
13.14	16.593
13.36	21.609
13.58	8.619
13.8	8.224
14.02	13.897
14.24	1.854
14.46	27.893
14.68	11.426
14.9	75.143
15.12	20.491
15.34	6.734
15.56	15.465
15.78	6.434
16	16.478
16.22	19.212
16.44	3.357
16.66	12.467
16.88	23.294
17.1	12.578
17.32	8.823
17.54	15.142
17.76	13.956
17.98	1.623
18.2	12.865
18.42	19.641
18.64	0.117
18.86	11.869
19.08	22.609
19.3	17.323
19.52	9.934
19.74	2.537
19.96	8.608
20.18	20.53
20.4	15.513
20.62	13.259
20.84	10.208
21.06	5.556
21.28	13.866
21.5	32.937
21.72	19.003
21.94	20.064
22.16	14.06
22.38	1.659
22.6	13.847
22.82	6.502
23.04	8.076
23.26	4.013
23.48	6.466
23.7	9.581
23.92	18.713
24.14	20.005
24.36	65.214
24.58	7.344
24.8	23.96
25.02	1.12
25.24	9.191
25.46	4.823
25.68	0.19
25.9	12.843
26.12	6.425
26.34	17.181
26.56	5.601
26.78	13.722
27	24.557
27.22	0.18
27.44	7.216
27.66	1.349
27.88	20.989
28.1	16.19
28.32	0.617
28.54	27.771
28.76	12.88
28.98	18.373
29.2	91.859
29.42	23.503
29.64	9.769
29.86	13.158
30.08	29.979
30.3	14.867
30.52	17.62
30.74	9.88
30.96	10.386
31.18	19.033
31.4	8.06
31.62	11.306
31.84	16.403
32.06	12.639
32.28	19.843
32.5	257.725
32.72	10.398
32.94	10.808
33.16	21.472
33.38	7.103
33.6	32.428
33.82	19.013
34.04	13.308
34.26	21.282
34.48	18.822
34.7	21.652
34.92	19.077
35.14	41.098
35.36	24.659
35.58	9.156
35.8	19.392
36.02	10.998
36.24	7.464
36.46	12.639
36.68	24.535
36.9	5.776
37.12	17.738
37.34	8.667
37.56	17.764
37.78	19.38
38	16.303
38.22	4.096
38.44	9.665
38.66	12.713
38.88	8.463
39.1	18.189
39.32	23.484
39.54	18.224
39.76	5.246
39.98	16.709
40.2	10.858
40.42	10.03
40.64	19.382
40.86	130.538
41.08	33.161
41.3	23.197
41.52	5.573
41.74	6.52
41.96	17.314
42.18	47.026
42.4	8.622
42.62	14.03
42.84	10.46
43.06	17.784
43.28	3.928
43.5	1.345
43.72	0.464
43.94	18.604
44.16	15.665
44.38	21.182
44.6	7.775
44.82	9.246
45.04	15.978
45.26	16.647
45.48	4.44
45.7	17.336
45.92	97.443
46.14	22.688
46.36	21.749
46.58	15.296
46.8	7.494
47.02	29.984
47.24	36.927
47.46	18.174
47.68	7.459
47.9	11.166
48.12	21.682
48.34	21.646
48.56	7.988
48.78	6.318
49	13.376
49.22	7.133
49.44	13.116
49.66	25.918
49.88	7.781
50.1	15.302
50.32	16.224
50.54	17.298
50.76	18.638
50.98	10.992
51.2	4.404
51.42	1.858
51.64	19.867
51.86	17.36
52.08	22.022
52.3	4.588
52.52	15.821
52.74	23.802
52.96	32.22
53.18	10.663
53.4	14.295
53.62	12.81
53.84	19.815
54.06	19.514
54.28	25.21
54.5	17.805
54.72	7.801
54.94	13.719
55.16	16.594
55.38	5.625
55.6	8.639
55.82	25.784
56.04	13.213
56.26	21.522
56.48	13.239
56.7	26.708
56.92	13.571
57.14	10.898
57.36	8.084
57.58	26.439
57.8	5.085
58.02	2.119
58.24	6.933
58.46	9.667
58.68	13.981
58.9	0.957
59.12	3.001
59.34	27.073
59.56	9.951
59.78	11.025
60	16.34
60.22	8.899
60.44	10.08
60.66	45.822
60.88	25.307
61.1	5.123
61.32	8.071
61.54	5.759
61.76	0.407
61.98	3.233
62.2	21.686
62.42	19.552
62.64	26.685
62.86	0.07
63.08	6.302
63.3	15.437
63.52	63.593
63.74	25.769
63.96	28.307
64.18	3.446
64.4	1.48
64.62	27.017
64.84	11.54
65.06	18
65.28	20.368
65.5	27.61
65.72	23.165
65.94	14.203
66.16	4.502
66.38	17.697
66.6	13.19
66.82	18.163
67.04	0.893
67.26	0.775
67.48	31.021
67.7	33.765
67.92	14.433
68.14	4.182
68.36	8.547
68.58	6.224
68.8	17.96
69.02	9.038
69.24	8.692
69.46	9.858
69.68	5.876
69.9	45.88
70.12	22.526
70.34	20.987
70.56	10.173
70.78	12.302
71	43.034
71.22	22.044
71.44	22.476
71.66	44.306
71.88	33.349
72.1	16.341
72.32	11.166
72.54	22.231
72.76	7.645
72.98	17.941
73.2	2.477
73.42	28.717
73.64	13.178
73.86	16.666
74.08	26.313
74.3	19.585
74.52	21.108
74.74	13.802
74.96	11.206
75.18	13.176
75.4	27.493
75.62	11.646
75.84	7.102
76.06	7.533
76.28	42.19
76.5	19.566
76.72	5.461
76.94	22.571
77.16	8.45
77.38	5.4
77.6	16.234
77.82	9.297
78.04	20.306
78.26	10.16
78.48	14.481
78.7	19.893
78.92	12.798
79.14	20.517
79.36	9.016
79.58	9.345
79.8	1.32
80.02	4.365
80.24	35.025
80.46	23.002
80.68	23.56
80.9	17.766
81.12	6.725
81.34	5.017
81.56	15.04
81.78	19.539
82	5.408
82.22	13.242
82.44	6.16
82.66	19.38
82.88	13.148
83.1	14.913
83.32	20.376
83.54	13.885
83.76	15.723
83.98	0.861
84.2	5.616
84.42	9.657
84.64	6.612
84.86	16.244
85.08	16.664
85.3	4.839
85.52	29.906
85.74	6.866
85.96	8.985
86.18	19.151
86.4	20.097
86.62	10.323
86.84	23.264
87.06	0.689
87.28	11.648
87.5	2.258
87.72	5.247
87.94	18.229
88.16	17.277
88.38	0.989
88.6	9.916
88.82	16.226
89.04	12.497
89.26	10.239
89.48	8.383
89.7	26.484
89.92	5.408
