Measurement: Powder, Xray Data XY Processed
Mineral: Argesite
Rruff sample: R130008
Ideal chemistry: (N^3-^H_4_)_7_Bi^3+^_3_Cl_16_
Locality: La Fossa crater, Vulcano, Aeolian Islands, Sicily, Italy
Source: Francesco Demartin
Description: Pale-yellow crystals up to 0.15 mm in length, associated with bismuthinite, adranosite, brontesite, demicheleite-(Br), demicheleite-(Cl), and panichiite. Data from Demartin et al (2012).
Diffraction sample description: Single crystal, powder profile is calculated
Measured chemistry: [(NH_4_)_6.29_K_0.91_Tl_0.06_]_Σ=7.26_Bi_2.93_(Cl_13.33_Br_2.37_I_0.11_)_Σ=15.81_
Cell parameters: a: 13.093(1) b: 13.093(1) c: 102.682(9) alpha: 90 beta: 90 gamma: 120 volume: 15245 crystal system: hexagonal
x	intensity
0	0
0.28	0
0.56	0
0.84	0
1.12	0
1.4	0
1.68	0
1.96	0
2.24	0
2.519	0
2.799	0
3.079	0
3.359	0
3.639	0
3.919	0
4.199	0
4.479	0
4.759	0.03
5.039	2.5
5.319	1.944
5.599	0.014
5.879	0
6.159	0
6.439	0
6.719	0
6.998	0
7.278	0
7.558	0
7.838	0.006
8.118	0.028
8.398	1.487
8.678	1.207
8.958	0.011
9.238	0
9.518	0
9.798	0.002
10.078	1.212
10.358	7.857
10.638	0.658
10.918	0.001
11.198	0.002
11.477	0.127
11.757	0.146
12.037	0.002
12.317	0
12.597	0
12.877	0
13.157	0.006
13.437	4.128
13.717	73.498
13.997	21.033
14.277	31.689
14.557	87.795
14.837	3.98
15.117	0.297
15.397	18.941
15.677	25.255
15.956	0.893
16.236	0.019
16.516	0.016
16.796	4.568
17.076	24.42
17.356	2.44
17.636	0.009
17.916	0.019
18.196	0.009
18.476	2.534
18.756	17.923
19.036	3.157
19.316	0.049
19.596	0.175
19.876	0.383
20.156	0.026
20.435	0.666
20.715	2.335
20.995	0.634
21.275	0.091
21.555	0.277
21.835	0.102
22.115	0.022
22.395	3.034
22.675	25.16
22.955	5.466
23.235	5.173
23.515	34.379
23.795	7.297
24.075	0.864
24.355	0.457
24.635	10.395
24.914	24.379
25.194	2.017
25.474	0.825
25.754	3.649
26.034	1.097
26.314	0.087
26.594	0.086
26.874	3.595
27.154	17.072
27.434	15.12
27.714	7.887
27.994	5.212
28.274	35.929
28.554	15.953
28.834	1.885
29.114	2.949
29.393	2.02
29.673	0.364
29.953	0.21
30.233	0.24
30.513	1.234
30.793	4.306
31.073	0.738
31.353	1.016
31.633	4.709
31.913	2.493
32.193	2.266
32.473	0.63
32.753	18.327
33.033	28.095
33.313	1.809
33.593	0.233
33.872	0.158
34.152	3.205
34.432	22.538
34.712	10.219
34.992	1.542
35.272	12.23
35.552	8.446
35.832	1.164
36.112	7.606
36.392	14.955
36.672	19.857
36.952	7.535
37.232	2.687
37.512	1.228
37.792	5.499
38.072	3.274
38.351	1.163
38.631	3.182
38.911	1.477
39.191	4.982
39.471	8.617
39.751	3.361
40.031	1.083
40.311	0.386
40.591	2.93
40.871	13.768
41.151	7.437
41.431	10.867
41.711	3.744
41.991	12.159
42.271	17.466
42.551	2.976
42.83	1.333
43.11	0.224
43.39	2.588
43.67	7.915
43.95	2.508
44.23	6.473
44.51	11.417
44.79	1.713
45.07	0.233
45.35	0.357
45.63	0.505
45.91	0.579
46.19	2.883
46.47	4.513
46.75	3.703
47.03	2.685
47.309	2.733
47.589	0.472
47.869	2.704
48.149	9.551
48.429	4.851
48.709	8.302
48.989	7.256
49.269	3.604
49.549	6.504
49.829	3.066
50.109	3.34
50.389	7.993
50.669	8.844
50.949	5.245
51.229	1.495
51.509	1.325
51.788	0.547
52.068	1.937
52.348	2.476
52.628	5.602
52.908	2.978
53.188	0.95
53.468	0.646
53.748	1.668
54.028	1.399
54.308	0.443
54.588	2.388
54.868	6.099
55.148	2.74
55.428	1.564
55.708	1.482
55.988	2.142
56.267	2.767
56.547	2.549
56.827	1.153
57.107	0.86
57.387	0.76
57.667	0.299
57.947	0.398
58.227	1.116
58.507	1.164
58.787	0.631
59.067	1.667
59.347	2.755
59.627	2.565
59.907	0.686
60.187	0.668
60.467	4.795
60.747	4.438
61.026	0.671
61.306	1.02
61.586	3.477
61.866	6.421
62.146	3.871
62.426	0.793
62.706	0.863
62.986	0.671
63.266	0.499
63.546	1.246
63.826	3.084
64.106	1.853
64.386	0.788
64.666	1.42
64.946	2.612
65.226	2.489
65.505	2.346
65.785	5.009
66.065	4.424
66.345	1.726
66.625	0.859
66.905	1.045
67.185	1.744
67.465	2.906
67.745	2.456
68.025	0.49
68.305	0.209
68.585	0.38
68.865	1.366
69.145	1.98
69.425	1.68
69.705	1.38
69.984	0.671
70.264	0.469
70.544	0.525
70.824	0.928
71.104	0.664
71.384	1.489
71.664	2.197
71.944	1.564
72.224	2.036
72.504	1.395
72.784	0.368
73.064	0.287
73.344	0.318
73.624	0.375
73.904	1.051
74.184	2.387
74.463	1.869
74.743	1.36
75.023	2.372
75.303	1.781
75.583	1.698
75.863	2.317
76.143	1.28
76.423	0.868
76.703	1.083
76.983	1.842
77.263	2.574
77.543	1.842
77.823	0.955
78.103	0.603
78.383	0.303
78.663	0.318
78.942	0.517
79.222	0.443
79.502	1.108
79.782	2.215
80.062	2.005
80.342	0.866
80.622	1.206
80.902	2.529
81.182	1.459
81.462	1.173
81.742	1.201
82.022	1.041
82.302	0.524
82.582	0.223
82.862	0.454
83.142	0.587
83.421	0.326
83.701	0.672
83.981	1.003
84.261	0.566
84.541	0.213
84.821	0.337
85.101	0.327
85.381	0.62
85.661	0.837
85.941	0.517
86.221	0.714
86.501	0.784
86.781	1.077
87.061	0.707
87.341	0.245
87.621	0.204
87.9	0.292
88.18	0.31
88.46	0.799
88.74	0.838
89.02	0.409
89.3	0.262
89.58	0.386
89.86	0.447
