Measurement: Powder, Xray Data XY Processed
Mineral: Argyrodite
Rruff sample: R050437
Ideal chemistry: Ag^1+^_8_Ge^4+^S^2-^_6_
Locality: Himmelsfurst mine, Freiberg, Saxony, Germany
Source: University of Arizona Mineral Museum
Description: Steel gray with a red hint, mass of poorly formed crystals, associated with pyrargyrite.
Diffraction sample description: Powder, cell parameters are from single crystal
Measured chemistry: Ag_8.00_Ge_1.00_S_6.00_
Cell parameters: a: 15.099(1) b: 7.458(2) c: 10.568(2) alpha: 90 beta: 90 gamma: 90 volume: 1190.0(5) crystal system: orthorhombic
x	intensity
5	0
5.22	3.06816
5.44	11.8732
5.66	3.91156
5.88	3.79914
6.1	3.02153
6.32	4.08054
6.54	3.08673
6.76	7.20598
6.98	2.28897
7.2	9.11178
7.42	4.20275
7.64	7.35859
7.86	0.280711
8.08	0.981897
8.3	1.0988
8.52	3.25789
8.74	0.614497
8.96	2.5369
9.18	0.377866
9.4	4.70651
9.62	1.87149
9.84	4.0172
10.06	3.18251
10.28	0.979999
10.5	0.881638
10.72	3.77639
10.94	3.86047
11.16	6.94558
11.38	2.94361
11.6	0.085698
11.82	2.17885
12.04	2.19156
12.26	7.12784
12.48	3.98682
12.7	2.98231
12.92	4.12948
13.14	1.07451
13.36	2.88809
13.58	2.82898
13.8	1.82633
14.02	1.32745
14.24	2.63022
14.46	12.4829
14.68	4.60448
14.9	3.68603
15.12	5.75071
15.34	2.67886
15.56	7.85068
15.78	1.02542
16	5.07998
16.22	4.07373
16.44	2.159
16.66	1.13272
16.88	3.1988
17.1	5.06809
17.32	2.93664
17.54	4.11186
17.76	3.1118
17.98	5.09857
18.2	4.09642
18.42	1.05849
18.64	6.24642
18.86	4.30833
19.08	3.31704
19.3	1.26464
19.52	3.32866
19.74	1.27026
19.96	5.27735
20.18	3.206
20.4	5.08999
20.62	5.08413
20.84	1.05286
21.06	7.95214
21.28	5.83842
21.5	2.83574
21.72	5.77047
21.94	4.63361
22.16	4.65985
22.38	2.48211
22.6	1.49448
22.82	3.50961
23.04	3.41
23.26	4.33618
23.48	9.18199
23.7	4.06112
23.92	0.01375
24.14	7.93411
24.36	5.90045
24.58	3.86014
24.8	3.74608
25.02	0.314783
25.24	6.57798
25.46	0.591491
25.68	4.43008
25.9	1.48958
26.12	4.47686
26.34	8.14065
26.56	2.73579
26.78	8.2146
27	3.6015
27.22	1.16601
27.44	0.68018
27.66	5.96911
27.88	11.1997
28.1	15.4983
28.32	7.71136
28.54	7.03313
28.76	9.60389
28.98	12.4325
29.2	18.3082
29.42	21.3855
29.64	3.5314
29.86	5.65782
30.08	6.68739
30.3	5.02445
30.52	5.40468
30.74	5.76181
30.96	6.03482
31.18	9.57871
31.4	9.80178
31.62	14.1847
31.84	10.005
32.06	13.8283
32.28	10.2919
32.5	4.57324
32.72	2.31851
32.94	2.20051
33.16	14.0461
33.38	14.79
33.6	6.22126
33.82	1.16851
34.04	2.18777
34.26	2.01927
34.48	12.0109
34.7	2.91473
34.92	2.87626
35.14	0.83678
35.36	2.63499
35.58	4.49418
35.8	3.48174
36.02	8.41032
36.24	6.6685
36.46	11.8879
36.68	13.8908
36.9	11.9552
37.12	15.217
37.34	0.473653
37.56	6.93467
37.78	9.31761
38	11.7116
38.22	5.56747
38.44	5.94667
38.66	7.80727
38.88	8.11117
39.1	12.2332
39.32	2.59344
39.54	5.75467
39.76	0.884994
39.98	1.10253
40.2	1.04797
40.42	7.10324
40.64	7.63087
40.86	1.58377
41.08	7.81685
41.3	12.9607
41.52	5.86519
41.74	1.71322
41.96	5.63572
42.18	4.70672
42.4	6.47049
42.62	7.48071
42.84	3.55209
43.06	3.44331
43.28	8.30533
43.5	7.90326
43.72	9.72899
43.94	2.7392
44.16	11.8698
44.38	17.4247
44.6	5.33043
44.82	6.59225
45.04	7.70528
45.26	6.75712
45.48	2.93493
45.7	2.57926
45.92	8.90384
46.14	9.19095
46.36	11.1792
46.58	9.74251
46.8	4.37236
47.02	1.71892
47.24	3.114
47.46	7.97348
47.68	3.74532
47.9	7.73635
48.12	9.29762
48.34	5.96675
48.56	8.70135
48.78	14.4732
49	8.06956
49.22	4.00347
49.44	1.9393
49.66	5.1072
49.88	6.20649
50.1	0.29824
50.32	4.30175
50.54	4.3961
50.76	7.65318
50.98	1.78736
51.2	3.95979
51.42	6.11426
51.64	5.39982
51.86	1.62799
52.08	3.73945
52.3	6.97919
52.52	2.27681
52.74	3.60472
52.96	0.728956
53.18	1.80333
53.4	3.05857
53.62	7.09269
53.84	1.09103
54.06	5.04564
54.28	0.292314
54.5	5.30793
54.72	6.14653
54.94	1.04649
55.16	9.89896
55.38	0.878706
55.6	3.82765
55.82	5.83118
56.04	5.72297
56.26	7.56612
56.48	7.46742
56.7	0.923018
56.92	3.99298
57.14	2.86004
57.36	6.01129
57.58	4.94659
57.8	7.89384
58.02	14.7439
58.24	0.675854
58.46	1.22332
58.68	0.952912
58.9	4.33536
59.12	4.3819
59.34	7.62256
59.56	0.837312
59.78	2.61875
60	1.64354
60.22	3.76022
60.44	5.73466
60.66	5.68089
60.88	3.81813
61.1	5.54614
61.32	10.3553
61.54	10.3377
61.76	4.31999
61.98	1.35047
62.2	5.73873
62.42	7.75543
62.64	1.65968
62.86	3.20328
63.08	8.85004
63.3	3.74242
63.52	3.72159
63.74	2.77041
63.96	6.84614
64.18	3.45952
64.4	9.38365
64.62	3.23274
64.84	7.21923
65.06	3.23372
65.28	2.16118
65.5	7.48877
65.72	13.4266
65.94	3.47149
66.16	0.543663
66.38	5.5666
66.6	1.2581
66.82	0.731266
67.04	1.74232
67.26	5.84767
67.48	3.03408
67.7	4.49906
67.92	5.28702
68.14	3.40559
68.36	7.53005
68.58	4.68727
68.8	10.6296
69.02	3.55109
69.24	2.65007
69.46	1.68225
69.68	1.40259
69.9	1.36191
70.12	6.10593
70.34	5.11773
70.56	7.09628
70.78	2.97593
71	7.79228
71.22	3.89046
71.44	1.002
71.66	2.88411
71.88	2.90186
72.1	2.93097
72.32	0.031674
72.54	5.86805
72.76	0.929213
72.98	2.16685
73.2	6.29446
73.42	6.334
73.64	6.12543
73.86	2.22344
74.08	5.22577
74.3	6.45978
74.52	2.44692
74.74	3.53801
74.96	4.4782
75.18	3.47208
75.4	0.167206
75.62	4.15299
75.84	1.16163
76.06	1.11181
76.28	3.15818
76.5	4.05055
76.72	9.87939
76.94	5.88244
77.16	2.03118
77.38	2.25649
77.6	7.26507
77.82	2.38043
78.04	3.35333
78.26	3.38924
78.48	0.662365
78.7	4.55857
78.92	1.61011
79.14	2.65528
79.36	1.74767
79.58	4.73367
79.8	3.719
80.02	3.82784
80.24	2.79428
80.46	2.12645
80.68	3.79597
80.9	2.76687
81.12	5.54537
81.34	1.4718
81.56	4.3864
81.78	4.11879
82	1.01693
82.22	5.79658
82.44	0.137749
82.66	4.85633
82.88	2.73482
83.1	1.92833
83.32	3.96701
83.54	4.24136
83.76	10.3665
83.98	5.42151
84.2	3.55288
84.42	0.088172
84.64	0.025029
84.86	10.991
85.08	6.13794
85.3	2.19227
85.52	7.07924
85.74	4.18944
85.96	5.06205
86.18	2.04966
86.4	1.02103
86.62	6.06512
86.84	1.87423
87.06	4.87004
87.28	9.83758
87.5	3.80861
87.72	6.86331
87.94	5.03041
88.16	6.0964
88.38	4.41211
88.6	0.509889
88.82	10.4346
89.04	4.53555
89.26	3.80967
89.48	1.9148
89.7	3.92786
89.92	2.90501
