Measurement: Powder, Xray Data XY Processed
Mineral: Arsenopyrite
Rruff sample: R061082
Ideal chemistry: Fe^3+^(AsS)^3-^
Locality: Little Gem mine, Goldbridge, British Columbia, Canada
Source: Lloyd Twaites
Description: Silver gray metallic fragments
Diffraction sample description: Powder
Measured chemistry: Fe_1.00_As_1.00_S_1.00_
Cell parameters: a: 5.7513(8) b: 5.6890(4) c: 5.7850(8) alpha: 90 beta: 112.37(1) gamma: 90 volume: 175.03(3) crystal system: monoclinic
x	intensity
5	0
5.22	19.2152
5.44	16.8162
5.66	6.61105
5.88	16.3595
6.1	14.666
6.32	10.1417
6.54	18.1236
6.76	7.21561
6.98	0.087303
7.2	17.5483
7.42	18.2463
7.64	17.9007
7.86	6.66956
8.08	18.4735
8.3	17.5728
8.52	8.03146
8.74	15.3073
8.96	7.50713
9.18	24.1236
9.4	0.524185
9.62	22.9407
9.84	22.4709
10.06	14.4587
10.28	38.3628
10.5	17.2311
10.72	28.269
10.94	14.0379
11.16	16.239
11.38	24.6719
11.6	19.1159
11.82	13.5463
12.04	6.10679
12.26	20.9802
12.48	29.4352
12.7	11.4705
12.92	13.9789
13.14	2.27187
13.36	16.6156
13.58	7.75049
13.8	11.8588
14.02	6.41925
14.24	18.0075
14.46	13.1326
14.68	11.907
14.9	23.5684
15.12	23.1163
15.34	16.7977
15.56	25.0032
15.78	18.7646
16	31.8379
16.22	5.96292
16.44	5.60639
16.66	12.3539
16.88	34.0387
17.1	2.08939
17.32	16.5798
17.54	16.0517
17.76	17.6471
17.98	2.26147
18.2	8.45769
18.42	19.6723
18.64	7.28997
18.86	12.4894
19.08	24.9282
19.3	1.73814
19.52	19.378
19.74	27.0052
19.96	9.24036
20.18	32.13
20.4	16.5449
20.62	6.54555
20.84	28.7794
21.06	6.41117
21.28	21.5307
21.5	13.2215
21.72	22.6884
21.94	11.8892
22.16	32.3105
22.38	14.284
22.6	40.2846
22.82	29.191
23.04	20.9248
23.26	20.7549
23.48	21.0628
23.7	0.055435
23.92	17.2699
24.14	18.9043
24.36	55.6792
24.58	2.28103
24.8	14.6938
25.02	22.3517
25.24	1.25603
25.46	7.62473
25.68	0.586983
25.9	13.8113
26.12	12.6046
26.34	17.4075
26.56	3.67564
26.78	27.8535
27	33.2925
27.22	5.85726
27.44	26.7441
27.66	28.8785
27.88	7.96564
28.1	14.7134
28.32	18.4016
28.54	20.011
28.76	22.8512
28.98	15.4292
29.2	19.2562
29.42	14.4043
29.64	29.067
29.86	32.8699
30.08	26.2882
30.3	7.09838
30.52	5.27653
30.74	23.017
30.96	29.4961
31.18	56.3769
31.4	43.2083
31.62	20.9711
31.84	15.4869
32.06	46.5046
32.28	14.1787
32.5	3.55742
32.72	9.77546
32.94	13.5212
33.16	20.9932
33.38	18.6218
33.6	140.047
33.82	74.8802
34.04	20.4606
34.26	2.42757
34.48	20.7596
34.7	19.5731
34.92	9.5285
35.14	26.8381
35.36	2.39818
35.58	8.30426
35.8	43.8745
36.02	10.2882
36.24	6.72424
36.46	8.13498
36.68	168.381
36.9	54.5682
37.12	276.077
37.34	164.212
37.56	34.7423
37.78	3.68996
38	30.402
38.22	25.2277
38.44	31.8784
38.66	16.5682
38.88	9.98634
39.1	1.99495
39.32	1.93606
39.54	15.1445
39.76	25.0366
39.98	11.8454
40.2	20.3849
40.42	6.33853
40.64	13.2079
40.86	56.6952
41.08	19.3274
41.3	7.42773
41.52	23.4222
41.74	9.32706
41.96	13.4178
42.18	11.3013
42.4	25.6147
42.62	8.36874
42.84	10.5304
43.06	23.1951
43.28	24.1798
43.5	19.6839
43.72	24.2556
43.94	17.9578
44.16	24.3449
44.38	17.6536
44.6	18.6776
44.82	25.1998
45.04	16.8716
45.26	22.045
45.48	5.6413
45.7	3.64851
45.92	23.1568
46.14	8.33781
46.36	32.028
46.58	54.4774
46.8	28.9712
47.02	4.46249
47.24	1.02673
47.46	25.8475
47.68	17.329
47.9	18.8737
48.12	51.8959
48.34	21.3565
48.56	21.3967
48.78	28.5672
49	24.3569
49.22	31.9784
49.44	21.1285
49.66	55.7299
49.88	76.467
50.1	77.7021
50.32	80.606
50.54	19.4241
50.76	8.17852
50.98	13.8274
51.2	27.7433
51.42	33.3844
51.64	13.2333
51.86	49.7136
52.08	19.835
52.3	30.5317
52.52	37.842
52.74	5.35358
52.96	25.9252
53.18	12.6052
53.4	5.1555
53.62	15.9667
53.84	38.1006
54.06	17.1315
54.28	9.4369
54.5	20.8518
54.72	22.5707
54.94	6.57449
55.16	10.6904
55.38	10.894
55.6	5.91092
55.82	2.41023
56.04	24.1063
56.26	110.553
56.48	39.2364
56.7	20.9188
56.92	4.84927
57.14	3.11652
57.36	97.3753
57.58	11.9714
57.8	30.5732
58.02	54.5866
58.24	36.8642
58.46	24.8958
58.68	11.7762
58.9	1.30827
59.12	26.714
59.34	19.2638
59.56	30.3487
59.78	43.0355
60	54.9502
60.22	44.5795
60.44	3.69048
60.66	11.4912
60.88	16.3196
61.1	11.6847
61.32	14.0126
61.54	0.19854
61.76	25.4184
61.98	15.0126
62.2	12.5727
62.42	13.6616
62.64	11.2989
62.86	9.69469
63.08	11.4879
63.3	28.3738
63.52	44.6126
63.74	30.0233
63.96	17.0721
64.18	33.8261
64.4	32.4949
64.62	24.8998
64.84	15.6832
65.06	7.22211
65.28	19.0592
65.5	23.288
65.72	23.1081
65.94	18.1655
66.16	17.5814
66.38	19.4571
66.6	16.418
66.82	17.4794
67.04	28.4627
67.26	24.3432
67.48	6.58401
67.7	5.65898
67.92	28.346
68.14	21.6874
68.36	30.5176
68.58	12.5529
68.8	19.8204
69.02	14.2735
69.24	43.6287
69.46	22.3682
69.68	6.2044
69.9	66.11
70.12	45.7482
70.34	30.9223
70.56	26.0073
70.78	15.0839
71	12.6158
71.22	17.3051
71.44	4.16612
71.66	0.639198
71.88	15.8196
72.1	15.0998
72.32	28.2666
72.54	24.2944
72.76	21.5643
72.98	22.7829
73.2	26.9031
73.42	0.089447
73.64	30.1028
73.86	27.8112
74.08	10.0803
74.3	49.7764
74.52	31.9559
74.74	20.2296
74.96	18.8607
75.18	15.1542
75.4	21.4448
75.62	51.313
75.84	15.7213
76.06	12.1576
76.28	25.315
76.5	12.8819
76.72	13.7278
76.94	22.3435
77.16	23.4315
77.38	12.5911
77.6	19.1818
77.82	12.9227
78.04	25.4296
78.26	18.3878
78.48	19.9595
78.7	7.863
78.92	36.9238
79.14	13.0369
79.36	25.1829
79.58	2.66897
79.8	39.338
80.02	12.566
80.24	13.8877
80.46	14.7287
80.68	36.4395
80.9	18.6444
81.12	17.097
81.34	29.058
81.56	0.839966
81.78	14.3779
82	10.514
82.22	31.0437
82.44	1.92855
82.66	11.264
82.88	5.77282
83.1	29.7312
83.32	10.1572
83.54	20.8408
83.76	8.85351
83.98	3.51708
84.2	20.9062
84.42	12.4779
84.64	25.268
84.86	11.1592
85.08	17.5744
85.3	19.1382
85.52	21.1493
85.74	13.9782
85.96	29.2731
86.18	22.4686
86.4	28.6686
86.62	10.2414
86.84	18.7582
87.06	12.66
87.28	27.8303
87.5	20.784
87.72	32.9621
87.94	26.6155
88.16	27.0547
88.38	19.7218
88.6	31.4362
88.82	36.057
89.04	16.4799
89.26	15.9387
89.48	19.2215
89.7	42.0507
89.92	17.7365
