Measurement: Powder, Xray Data XY Processed
Mineral: Arsenolamprite
Rruff sample: R060680
Ideal chemistry: As
Locality: Copiapo, Atacama, Chile
Source: Michael Scott
Description: Black oxidized coating of arsenolite over a group of elongated bladed and platy crystals
Diffraction sample description: Powder
Measured chemistry: light phase: As_1.00_ ; dark phase: As_2.00_O_3_
x	intensity
5	0
5.22	5.23455
5.44	24.3637
5.66	13.2817
5.88	10.2167
6.1	12.4158
6.32	1.71795
6.54	12.5509
6.76	6.07631
6.98	7.63165
7.2	8.14554
7.42	9.45448
7.64	2.93125
7.86	5.20992
8.08	1.90893
8.3	9.54919
8.52	10.0912
8.74	14.7125
8.96	1.88892
9.18	10.8983
9.4	9.83413
9.62	0.788696
9.84	7.76776
10.06	5.75689
10.28	15.2863
10.5	2.85213
10.72	0.588659
10.94	0.213108
11.16	2.09632
11.38	9.84592
11.6	9.70025
11.82	8.99895
12.04	4.97171
12.26	15.8426
12.48	11.3296
12.7	2.12729
12.92	0.904579
13.14	2.60674
13.36	8.70414
13.58	3.04762
13.8	116.704
14.02	10.8062
14.24	10.4216
14.46	3.11192
14.68	0.24329
14.9	4.59251
15.12	14.5396
15.34	8.5254
15.56	7.94487
15.78	5.21365
16	26.0501
16.22	73.5222
16.44	14.5787
16.66	16.5051
16.88	13.8167
17.1	7.14552
17.32	2.31095
17.54	2.67123
17.76	9.73892
17.98	2.43538
18.2	4.43587
18.42	5.93025
18.64	3.48709
18.86	12.0044
19.08	6.33959
19.3	17.7194
19.52	9.23306
19.74	5.80087
19.96	10.1179
20.18	7.46069
20.4	14.8383
20.62	11.9537
20.84	6.19071
21.06	11.3856
21.28	15.1164
21.5	13.1621
21.72	14.203
21.94	10.8133
22.16	9.25779
22.38	7.29216
22.6	14.0333
22.82	12.761
23.04	9.02205
23.26	6.21275
23.48	16.8926
23.7	9.3987
23.92	1.67442
24.14	1.21981
24.36	7.99328
24.58	5.18986
24.8	6.06249
25.02	3.33112
25.24	17.7134
25.46	19.9249
25.68	56.8957
25.9	22.9246
26.12	8.88087
26.34	7.8054
26.56	9.7869
26.78	16.85
27	3.00211
27.22	2.46876
27.44	11.313
27.66	10.1714
27.88	340.493
28.1	18.3914
28.32	13.8056
28.54	3.5812
28.76	27.694
28.98	2.6478
29.2	6.02626
29.42	17.7112
29.64	13.9956
29.86	3.49546
30.08	7.86775
30.3	3.48524
30.52	10.7756
30.74	15.3944
30.96	0.036964
31.18	14.1074
31.4	3.88954
31.62	10.7988
31.84	17.7288
32.06	22.0028
32.28	148.88
32.5	196.512
32.72	145.993
32.94	84.6731
33.16	23.3927
33.38	3.7313
33.6	0.112434
33.82	4.26597
34.04	5.43176
34.26	5.58166
34.48	14.476
34.7	11.0511
34.92	19.4633
35.14	40.4591
35.36	92.8252
35.58	13.7986
35.8	11.3788
36.02	10.6661
36.24	11.2451
36.46	0.612158
36.68	3.8654
36.9	9.29638
37.12	0.669493
37.34	12.6645
37.56	8.41103
37.78	20.0151
38	12.7407
38.22	4.53416
38.44	2.17667
38.66	5.5582
38.88	19.5183
39.1	6.48377
39.32	3.71473
39.54	11.2388
39.76	5.03531
39.98	20.0572
40.2	36.7766
40.42	24.1644
40.64	8.20784
40.86	4.0533
41.08	2.66087
41.3	12.6622
41.52	14.0172
41.74	4.90823
41.96	1.89184
42.18	17.6574
42.4	29.259
42.62	12.8529
42.84	11.0074
43.06	12.6704
43.28	24.3859
43.5	33.3596
43.72	6.67443
43.94	14.0762
44.16	19.3848
44.38	14.0633
44.6	9.61998
44.82	16.066
45.04	1.25452
45.26	10.1564
45.48	1.73406
45.7	17.9908
45.92	8.73012
46.14	12.9423
46.36	86.2254
46.58	15.2174
46.8	3.80743
47.02	10.5589
47.24	1.66138
47.46	4.76685
47.68	1.42079
47.9	13.3448
48.12	20.6204
48.34	27.7242
48.56	18.738
48.78	3.11741
49	3.09257
49.22	13.7963
49.44	8.97075
49.66	17.4699
49.88	20.6029
50.1	22.1998
50.32	8.38025
50.54	11.819
50.76	3.13985
50.98	2.32276
51.2	9.16203
51.42	25.972
51.64	8.74227
51.86	9.23857
52.08	13.5461
52.3	16.0897
52.52	22.1551
52.74	48.182
52.96	47.8432
53.18	23.6936
53.4	14.7485
53.62	14.3125
53.84	10.6416
54.06	9.04805
54.28	13.951
54.5	16.9053
54.72	15.8868
54.94	39.3076
55.16	13.2069
55.38	14.8231
55.6	19.5655
55.82	4.14534
56.04	1.16839
56.26	4.41827
56.48	13.6626
56.7	1.51094
56.92	16.3354
57.14	2.9164
57.36	14.1617
57.58	24.648
57.8	4.04555
58.02	3.98652
58.24	11.2929
58.46	7.46758
58.68	3.60837
58.9	2.64207
59.12	11.9056
59.34	16.9177
59.56	48.8788
59.78	20.6402
60	19.0461
60.22	0.024733
60.44	14.1626
60.66	12.0874
60.88	2.62136
61.1	2.91108
61.32	11.8503
61.54	6.98736
61.76	1.5334
61.98	3.58272
62.2	7.82439
62.42	16.2926
62.64	6.63847
62.86	5.00284
63.08	12.0569
63.3	15.974
63.52	9.91631
63.74	10.3166
63.96	0.993179
64.18	16.7954
64.4	17.2111
64.62	24.2573
64.84	11.0542
65.06	2.70373
65.28	7.13372
65.5	10.0666
65.72	6.87269
65.94	18.2306
66.16	10.6182
66.38	7.40755
66.6	4.19217
66.82	15.0161
67.04	15.5273
67.26	0.911148
67.48	8.63202
67.7	7.27088
67.92	6.326
68.14	6.10137
68.36	8.60504
68.58	19.0358
68.8	8.33898
69.02	2.70771
69.24	9.43371
69.46	18.0994
69.68	10.6253
69.9	1.4424
70.12	7.27184
70.34	5.66098
70.56	6.32553
70.78	6.04701
71	0.549318
71.22	4.60058
71.44	1.79427
71.66	2.96368
71.88	9.21922
72.1	9.112
72.32	9.75768
72.54	14.3675
72.76	17.0994
72.98	6.70261
73.2	6.2288
73.42	11.2329
73.64	13.0465
73.86	11.8034
74.08	15.2566
74.3	0.236576
74.52	11.004
74.74	4.17518
74.96	10.3633
75.18	2.75522
75.4	11.8009
75.62	0.944765
75.84	9.83257
76.06	3.96444
76.28	1.33293
76.5	11.5606
76.72	9.88122
76.94	10.7862
77.16	6.08628
77.38	8.54913
77.6	4.48233
77.82	1.21052
78.04	11.7283
78.26	5.73694
78.48	0.072657
78.7	14.6348
78.92	9.25717
79.14	19.0406
79.36	14.8894
79.58	9.47103
79.8	5.25313
80.02	10.8154
80.24	7.92495
80.46	7.30368
80.68	1.4657
80.9	6.35405
81.12	10.5263
81.34	4.6007
81.56	1.29733
81.78	11.8469
82	14.5859
82.22	3.68537
82.44	3.70506
82.66	9.71489
82.88	3.57319
83.1	14.5413
83.32	3.63916
83.54	5.68517
83.76	3.71169
83.98	4.7535
84.2	4.56097
84.42	12.501
84.64	5.83648
84.86	9.9207
85.08	1.94284
85.3	7.58104
85.52	11.27
85.74	6.0545
85.96	9.81374
86.18	11.5619
86.4	14.2073
86.62	5.07991
86.84	7.04225
87.06	3.50186
87.28	5.25238
87.5	14.6517
87.72	6.46218
87.94	5.55635
88.16	5.86171
88.38	4.21248
88.6	2.55541
88.82	0.97725
89.04	10.6
89.26	15.9564
89.48	8.09823
89.7	13.9489
89.92	7.75948
