Measurement: Powder, Xray Data XY Processed
Mineral: Astrophyllite
Rruff sample: R060202
Ideal chemistry: K_2_NaFe^2+^_7_Ti^4+^_2_(Si_4_O_12_)_2_O_2_(OH)_4_F
Locality: Demix Quarry, Mont Saint-Hilaire, Rouville County, Quebec, Canada
Source: Royal Ontario Museum
Description: Aggregate of brown splintered wafers
Diffraction sample description: Powder, cell parameters are from single crystal
Measured chemistry: (K_0.56_Na_0.38_Ca_0.06_)_3_(Fe^2+^_0.52_Mn_0.44_Mg_0.04_)_7_(Ti_0.75_Zr_0.15_Al_0.15_)_2_Si_8_O_24_(O_0.27_OH_0.73_)_7_
Cell parameters: a: 5.4110(6) b: 11.926(3) c: 11.696(3) alpha: 113.06(1) beta: 94.73(1) gamma: 103.16(1) volume: 663.8(3) crystal system: triclinic
x	intensity
5	0
5.22	5.273
5.44	7.317
5.66	18.391
5.88	0.919
6.1	6.963
6.32	14.96
6.54	6.468
6.76	9.911
6.98	14.965
7.2	7.953
7.42	20.851
7.64	5.624
7.86	11.017
8.08	14.88
8.3	182.62
8.52	42.619
8.74	10.974
8.96	24.75
9.18	7.171
9.4	1.25
9.62	0.17
9.84	21.427
10.06	20.227
10.28	6.294
10.5	4.917
10.72	19.336
10.94	22.782
11.16	5.934
11.38	8.472
11.6	21.456
11.82	0.255
12.04	15.564
12.26	3.6
12.48	13.153
12.7	3.483
12.92	16.537
13.14	4.626
13.36	1.168
13.58	6.152
13.8	18.858
14.02	20.205
14.24	14.059
14.46	6.48
14.68	7.714
14.9	2.269
15.12	12.883
15.34	13.206
15.56	19.202
15.78	2.551
16	2.349
16.22	8.239
16.44	11.931
16.66	5.432
16.88	19.372
17.1	15.331
17.32	18.696
17.54	1.087
17.76	7.574
17.98	2.738
18.2	5.055
18.42	10.335
18.64	6.133
18.86	21.166
19.08	12.072
19.3	9.036
19.52	14.816
19.74	3.319
19.96	10.332
20.18	23.125
20.4	8.807
20.62	6.431
20.84	12.085
21.06	7.028
21.28	15.389
21.5	20.812
21.72	16.373
21.94	26.341
22.16	6.111
22.38	10.03
22.6	8.666
22.82	12.843
23.04	11.885
23.26	0.973
23.48	14.76
23.7	11.257
23.92	13.398
24.14	2.977
24.36	1.171
24.58	7.881
24.8	16.968
25.02	3.575
25.24	70.352
25.46	21.459
25.68	4.296
25.9	1.346
26.12	13.739
26.34	2.587
26.56	20.783
26.78	7.593
27	9.017
27.22	4.434
27.44	16.302
27.66	12.186
27.88	21.636
28.1	1.332
28.32	17.607
28.54	11.717
28.76	10.995
28.98	11.603
29.2	17.968
29.42	13.445
29.64	15.686
29.86	16.825
30.08	22.562
30.3	19.865
30.52	7.801
30.74	3.635
30.96	2.669
31.18	6.657
31.4	4.109
31.62	17.077
31.84	7.023
32.06	0.73
32.28	19.346
32.5	11.068
32.72	5.279
32.94	4.801
33.16	4.876
33.38	9.186
33.6	4.663
33.82	16.582
34.04	16.589
34.26	3.372
34.48	4.328
34.7	20.987
34.92	35.21
35.14	27.473
35.36	11.044
35.58	10.026
35.8	0.325
36.02	11.515
36.24	14.139
36.46	13.129
36.68	9.983
36.9	22.214
37.12	10.789
37.34	9.438
37.56	16.155
37.78	1.495
38	6.4
38.22	1.195
38.44	5.243
38.66	7.454
38.88	12.638
39.1	10.265
39.32	9.73
39.54	0.991
39.76	4.369
39.98	3.308
40.2	7.085
40.42	3.213
40.64	2.697
40.86	6.6
41.08	13.507
41.3	2.13
41.52	7.132
41.74	1.002
41.96	6.827
42.18	6.634
42.4	0.861
42.62	7.63
42.84	19.565
43.06	6.897
43.28	2.071
43.5	18.033
43.72	13.007
43.94	9.717
44.16	12.687
44.38	4.116
44.6	0.909
44.82	2.817
45.04	19.846
45.26	2.307
45.48	6.448
45.7	8.719
45.92	11.02
46.14	3.151
46.36	13.205
46.58	4.548
46.8	17.943
47.02	7.027
47.24	9.423
47.46	10.984
47.68	10.921
47.9	5.131
48.12	15.095
48.34	13.558
48.56	22.429
48.78	4.957
49	9.809
49.22	9.714
49.44	10.799
49.66	7.651
49.88	6.126
50.1	8.706
50.32	10.102
50.54	13.557
50.76	11.659
50.98	4.016
51.2	8.372
51.42	9.942
51.64	23.948
51.86	21.089
52.08	18.988
52.3	1.253
52.52	12.776
52.74	11.268
52.96	1.599
53.18	3.007
53.4	7.992
53.62	17.331
53.84	18.708
54.06	7.248
54.28	0.827
54.5	23.304
54.72	5.269
54.94	18.313
55.16	3.011
55.38	17.906
55.6	11.655
55.82	11.068
56.04	5.02
56.26	1.824
56.48	16.584
56.7	4.757
56.92	11.838
57.14	6.6
57.36	10.126
57.58	1.118
57.8	4.325
58.02	1.229
58.24	16.367
58.46	14.113
58.68	5.915
58.9	3.494
59.12	18.437
59.34	15.21
59.56	6.468
59.78	1.812
60	13.57
60.22	12.357
60.44	7.126
60.66	11.518
60.88	14.144
61.1	8.901
61.32	8.152
61.54	12.347
61.76	13.747
61.98	2.154
62.2	9.515
62.42	0.023
62.64	16.633
62.86	15.077
63.08	8.206
63.3	10.318
63.52	1.671
63.74	16.273
63.96	18.354
64.18	5.138
64.4	6.569
64.62	29.566
64.84	9.742
65.06	15.233
65.28	14.409
65.5	9.736
65.72	8.412
65.94	22.528
66.16	11.014
66.38	26.041
66.6	9.422
66.82	1.11
67.04	6.186
67.26	1.505
67.48	12.831
67.7	17.558
67.92	13.331
68.14	3.825
68.36	15.308
68.58	8.765
68.8	2.795
69.02	18.862
69.24	10.592
69.46	0.054
69.68	12.848
69.9	5.937
70.12	1.501
70.34	2.235
70.56	6.711
70.78	8.841
71	11.195
71.22	14.645
71.44	3.667
71.66	0.704
71.88	12.894
72.1	20.256
72.32	14.968
72.54	1.711
72.76	0.935
72.98	16.855
73.2	7.88
73.42	9.875
73.64	13.252
73.86	16.597
74.08	13.963
74.3	17.552
74.52	4.419
74.74	19.585
74.96	19.02
75.18	12.379
75.4	18.36
75.62	9.501
75.84	1.424
76.06	21.662
76.28	8.979
76.5	5.201
76.72	12.985
76.94	10.285
77.16	2.484
77.38	10.911
77.6	11.888
77.82	4.963
78.04	1.939
78.26	4.022
78.48	9.937
78.7	13.609
78.92	13.133
79.14	3.18
79.36	11.595
79.58	24.361
79.8	15.254
80.02	9.902
80.24	8.701
80.46	8.3
80.68	0.277
80.9	10.246
81.12	19.065
81.34	7.566
81.56	13.592
81.78	12.89
82	12.992
82.22	7.804
82.44	12.002
82.66	5.429
82.88	11.681
83.1	4.685
83.32	8.567
83.54	9.037
83.76	1.593
83.98	12.246
84.2	1.487
84.42	7.46
84.64	8.65
84.86	12.581
85.08	10.941
85.3	22.373
85.52	3.321
85.74	14.088
85.96	14.511
86.18	1.555
86.4	7.47
86.62	14.477
86.84	11.642
87.06	1.573
87.28	14.754
87.5	10.192
87.72	7.967
87.94	18.208
88.16	7.592
88.38	19.999
88.6	13.858
88.82	10.608
89.04	8.762
89.26	9.043
89.48	2.743
89.7	24.199
89.92	7.076
