Measurement: Powder, Xray Data XY Processed
Mineral: Augelite
Rruff sample: R050060
Ideal chemistry: Al_2_PO_4_(OH)_3_
Locality: Machacamarca, Potosi Department, Bolivia
Source: Rock Currier
Description: Colorless prismatic crystals
Diffraction sample description: Powder
Measured chemistry: Al_2.00_(P_1.00_O_4_)(OH)_3_; OH estimated by difference
Cell parameters: a: 13.1288(2) b: 8.00246(8) c: 5.07774(7) alpha: 90 beta: 112.262(2) gamma: 90 volume: 493.715(9) crystal system: monoclinic
x	intensity
5	0
5.22	20.8321
5.44	15.283
5.66	12.232
5.88	11.6584
6.1	3.16883
6.32	16.5201
6.54	10.3061
6.76	8.13003
6.98	10.2294
7.2	1.87111
7.42	2.0674
7.64	4.85592
7.86	2.53056
8.08	8.33512
8.3	2.88199
8.52	10.7454
8.74	13.3557
8.96	12.1101
9.18	5.60462
9.4	9.12621
9.62	2.75673
9.84	7.03292
10.06	15.1285
10.28	12.0802
10.5	4.14142
10.72	11.9347
10.94	10.2744
11.16	10.7579
11.38	12.5492
11.6	22.1238
11.82	2.81692
12.04	13.7769
12.26	1.66239
12.48	5.60126
12.7	12.442
12.92	2.35843
13.14	22.6149
13.36	3.94704
13.58	8.28099
13.8	10.2515
14.02	18.2219
14.24	5.8217
14.46	8.40123
14.68	14.32
14.9	15.7629
15.12	18.2239
15.34	23.4051
15.56	11.4362
15.78	22.8019
16	21.0507
16.22	6.46324
16.44	10.0191
16.66	11.416
16.88	15.299
17.1	5.79549
17.32	23.2016
17.54	9.34792
17.76	0.626144
17.98	12.164
18.2	10.6149
18.42	15.1042
18.64	2.01687
18.86	337.367
19.08	38.2668
19.3	13.9423
19.52	0.649948
19.74	4.14171
19.96	8.95988
20.18	18.3055
20.4	2.06558
20.62	15.4283
20.84	26.3951
21.06	15.9981
21.28	9.27065
21.5	11.5088
21.72	13.881
21.94	1.5071
22.16	276.394
22.38	19.3119
22.6	10.3589
22.82	17.8019
23.04	15.0607
23.26	10.9204
23.48	0.603359
23.7	8.58295
23.92	9.83465
24.14	15.8668
24.36	9.59784
24.58	37.031
24.8	4.42328
25.02	4.73888
25.24	108.24
25.46	201.546
25.68	22.6615
25.9	12.899
26.12	1.33762
26.34	15.4072
26.56	155.267
26.78	191.873
27	11.128
27.22	0.950314
27.44	2.09213
27.66	0.766155
27.88	1.59556
28.1	7.05205
28.32	57.7037
28.54	21.0902
28.76	6.65087
28.98	14.2712
29.2	14.5607
29.42	29.9771
29.64	6.29982
29.86	5.48334
30.08	16.4982
30.3	11.9046
30.52	8.3454
30.74	4.04701
30.96	6.48855
31.18	11.071
31.4	4.49989
31.62	10.097
31.84	12.1984
32.06	2.73039
32.28	7.57727
32.5	30.8626
32.72	14.6186
32.94	2.11879
33.16	12.8048
33.38	2.66003
33.6	16.9484
33.82	14.4527
34.04	13.7235
34.26	9.26578
34.48	43.2649
34.7	12.5506
34.92	18.8592
35.14	12.0291
35.36	45.544
35.58	11.018
35.8	10.1193
36.02	112.694
36.24	32.9391
36.46	21.3066
36.68	15.5171
36.9	8.25181
37.12	3.7904
37.34	18.439
37.56	3.9279
37.78	33.1795
38	26.7714
38.22	1.37054
38.44	13.8063
38.66	6.6266
38.88	5.90088
39.1	23.0717
39.32	18.9501
39.54	12.7821
39.76	10.6732
39.98	5.25464
40.2	9.04596
40.42	6.55984
40.64	8.6427
40.86	16.2155
41.08	25.1398
41.3	12.2319
41.52	11.1544
41.74	13.4091
41.96	5.62904
42.18	20.3375
42.4	1.3775
42.62	0.875591
42.84	11.9471
43.06	3.99167
43.28	15.42
43.5	12.4325
43.72	16.4101
43.94	9.90331
44.16	7.05875
44.38	11.2588
44.6	2.34055
44.82	14.6709
45.04	3.55429
45.26	71.8439
45.48	16.1924
45.7	12.2855
45.92	6.4808
46.14	12.4499
46.36	36.3814
46.58	0.718796
46.8	97.5733
47.02	29.5828
47.24	1.43985
47.46	13.9049
47.68	9.10921
47.9	19.9585
48.12	7.22794
48.34	0.238134
48.56	15.2157
48.78	81.1019
49	19.6114
49.22	1.38344
49.44	11.1596
49.66	4.29809
49.88	7.54061
50.1	25.7832
50.32	9.9955
50.54	3.1211
50.76	17.5285
50.98	12.9182
51.2	2.60526
51.42	6.58171
51.64	15.9517
51.86	17.2351
52.08	11.3238
52.3	14.9744
52.52	12.6256
52.74	11.0839
52.96	9.73473
53.18	20.5924
53.4	8.4589
53.62	6.92503
53.84	4.85902
54.06	5.98857
54.28	10.19
54.5	11.1233
54.72	13.4564
54.94	10.5377
55.16	7.86699
55.38	0.837685
55.6	11.514
55.82	10.2375
56.04	4.23809
56.26	21.5612
56.48	2.65697
56.7	4.81139
56.92	2.91191
57.14	9.93071
57.36	8.35492
57.58	19.5721
57.8	50.4247
58.02	16.2154
58.24	32.4639
58.46	0.234833
58.68	18.4716
58.9	20.3007
59.12	11.333
59.34	19.1674
59.56	11.3209
59.78	5.76149
60	10.4894
60.22	13.8393
60.44	2.68202
60.66	6.31492
60.88	7.56386
61.1	15.3985
61.32	0.775024
61.54	1.05157
61.76	7.89282
61.98	5.44709
62.2	8.1352
62.42	4.75651
62.64	41.1254
62.86	47.3634
63.08	17.8814
63.3	28.5458
63.52	12.6854
63.74	8.30669
63.96	27.6067
64.18	2.99431
64.4	0.374187
64.62	14.9119
64.84	7.32654
65.06	1.82239
65.28	19.2279
65.5	8.65463
65.72	28.5576
65.94	14.4804
66.16	1.88246
66.38	0.717098
66.6	8.41275
66.82	6.58066
67.04	7.10297
67.26	3.46735
67.48	0.373427
67.7	4.70502
67.92	5.69701
68.14	18.8255
68.36	7.13385
68.58	5.40962
68.8	14.4193
69.02	8.79492
69.24	5.72471
69.46	9.45244
69.68	8.32106
69.9	0.274827
70.12	7.40693
70.34	11.001
70.56	58.0103
70.78	37.9498
71	8.23484
71.22	1.06968
71.44	4.90631
71.66	4.89264
71.88	12.2743
72.1	8.23601
72.32	5.17307
72.54	7.71413
72.76	5.9216
72.98	5.75803
73.2	0.623494
73.42	13.6238
73.64	8.76657
73.86	22.5774
74.08	19.2669
74.3	23.2086
74.52	13.6982
74.74	4.67145
74.96	11.3231
75.18	6.3942
75.4	0.589417
75.62	0.203965
75.84	0.959261
76.06	2.16862
76.28	2.22058
76.5	9.16948
76.72	10.4316
76.94	4.2738
77.16	6.247
77.38	4.85186
77.6	1.12771
77.82	12.1437
78.04	5.51267
78.26	4.73531
78.48	19.9235
78.7	16.1465
78.92	12.5672
79.14	2.413
79.36	10.5187
79.58	2.99641
79.8	8.04635
80.02	1.9834
80.24	4.95301
80.46	2.77566
80.68	5.72936
80.9	5.56873
81.12	11.4154
81.34	16.2379
81.56	9.49204
81.78	5.35539
82	8.2376
82.22	9.35694
82.44	0.516695
82.66	4.55755
82.88	4.72706
83.1	7.68084
83.32	5.17799
83.54	10.2118
83.76	6.01365
83.98	9.68853
84.2	2.89692
84.42	3.75258
84.64	12.7638
84.86	12.8608
85.08	23.1621
85.3	6.57472
85.52	8.8208
85.74	9.03411
85.96	12.391
86.18	3.57629
86.4	3.69507
86.62	8.01419
86.84	9.97622
87.06	10.8887
87.28	4.6444
87.5	10.2149
87.72	0.185589
87.94	15.509
88.16	4.76181
88.38	0.692272
88.6	5.07782
88.82	1.93306
89.04	6.27621
89.26	16.1672
89.48	8.78043
89.7	6.90269
89.92	5.56138
