Measurement: Powder, Xray Data XY Processed
Mineral: Augelite
Rruff sample: R050316
Ideal chemistry: Al_2_PO_4_(OH)_3_
Locality: Rapid Creek, Yukon Territory, Canada
Source: Eugene Schlepp
Description: Pale green thick prismatic crystals
Diffraction sample description: Powder
Measured chemistry: Al_2.00_(P_1.00_O_4_)(OH)_3_
Cell parameters: a: 13.1257(6) b: 8.0017(3) c: 5.0779(2) alpha: 90 beta: 112.257(3) gamma: 90 volume: 493.59(2) crystal system: monoclinic
x	intensity
5	0
5.22	10.0393
5.44	4.74863
5.66	6.52158
5.88	7.28054
6.1	5.2338
6.32	10.0236
6.54	13.0286
6.76	2.34678
6.98	1.43968
7.2	0.613344
7.42	9.46949
7.64	3.91294
7.86	7.51359
8.08	10.2863
8.3	8.95361
8.52	0.275176
8.74	11.6289
8.96	2.81996
9.18	1.74198
9.4	0.11327
9.62	2.13695
9.84	5.40827
10.06	5.43669
10.28	2.39619
10.5	0.778547
10.72	10.7535
10.94	1.73321
11.16	14.3227
11.38	8.33327
11.6	5.46205
11.82	3.3309
12.04	6.17645
12.26	7.07064
12.48	12.0185
12.7	5.16296
12.92	1.96368
13.14	2.12491
13.36	0.68905
13.58	7.67849
13.8	10.7866
14.02	3.77815
14.24	7.0424
14.46	1.05776
14.68	5.03305
14.9	5.99145
15.12	0.573055
15.34	14.4786
15.56	7.26441
15.78	9.36814
16	2.42222
16.22	12.4521
16.44	2.53645
16.66	3.5133
16.88	8.73081
17.1	7.61996
17.32	2.49309
17.54	8.90204
17.76	2.53672
17.98	6.34209
18.2	7.07381
18.42	7.08072
18.64	11.9971
18.86	212.837
19.08	153.544
19.3	17.3572
19.52	1.63322
19.74	0.652451
19.96	2.34186
20.18	6.64722
20.4	8.82975
20.62	5.98705
20.84	7.86387
21.06	6.67365
21.28	6.5581
21.5	14.3123
21.72	9.47472
21.94	8.51356
22.16	117.784
22.38	25.6928
22.6	8.32086
22.82	12.3439
23.04	7.96029
23.26	2.4399
23.48	5.92528
23.7	8.26665
23.92	4.63392
24.14	3.29783
24.36	0.186073
24.58	17.8069
24.8	11.4208
25.02	9.98549
25.24	94.963
25.46	226.249
25.68	34.9008
25.9	16.6585
26.12	2.14268
26.34	8.37389
26.56	76.3506
26.78	387.57
27	16.2678
27.22	2.8396
27.44	3.58534
27.66	0.333097
27.88	7.09805
28.1	4.69813
28.32	206.277
28.54	9.78339
28.76	0.132887
28.98	7.28532
29.2	8.36666
29.42	88.8874
29.64	8.31599
29.86	0.998557
30.08	8.28957
30.3	8.63347
30.52	4.06618
30.74	2.51117
30.96	1.32331
31.18	2.71771
31.4	2.66547
31.62	10.9708
31.84	11.2499
32.06	3.6137
32.28	5.57694
32.5	9.76363
32.72	3.89295
32.94	3.40915
33.16	1.27962
33.38	9.11074
33.6	0.727676
33.82	3.12232
34.04	4.47994
34.26	4.93269
34.48	22.3505
34.7	3.89248
34.92	3.36285
35.14	11.5617
35.36	66.5155
35.58	7.51165
35.8	6.51968
36.02	64.2974
36.24	53.5215
36.46	23.3309
36.68	3.59717
36.9	5.87631
37.12	6.14103
37.34	2.47751
37.56	4.88342
37.78	9.26558
38	5.44974
38.22	6.83641
38.44	11.2248
38.66	9.38589
38.88	5.66755
39.1	5.00229
39.32	10.2093
39.54	0.511308
39.76	6.59814
39.98	2.64608
40.2	7.37167
40.42	10.4922
40.64	8.4283
40.86	11.2048
41.08	11.6201
41.3	0.779479
41.52	4.1763
41.74	3.0931
41.96	7.2616
42.18	7.20871
42.4	4.1899
42.62	5.95567
42.84	0.567508
43.06	3.65236
43.28	6.39819
43.5	7.25317
43.72	48.2722
43.94	9.08163
44.16	0.208924
44.38	4.21501
44.6	0.160986
44.82	5.64548
45.04	9.19931
45.26	36.6474
45.48	25.8407
45.7	4.29434
45.92	1.33823
46.14	0.724234
46.36	23.977
46.58	0.44798
46.8	138.007
47.02	13.1151
47.24	13.6029
47.46	25.4488
47.68	7.42745
47.9	32.5093
48.12	6.71859
48.34	8.17539
48.56	20.4056
48.78	96.7369
49	32.189
49.22	0.651177
49.44	2.34667
49.66	13.3844
49.88	14.1094
50.1	3.04563
50.32	13.0254
50.54	6.39172
50.76	4.29698
50.98	10.9385
51.2	5.78388
51.42	6.24403
51.64	3.48541
51.86	6.98101
52.08	3.01478
52.3	0.858893
52.52	5.62424
52.74	5.67206
52.96	7.78529
53.18	32.4729
53.4	11.3475
53.62	1.0029
53.84	1.10864
54.06	1.29335
54.28	12.4361
54.5	11.5189
54.72	16.654
54.94	6.91588
55.16	8.83527
55.38	7.00481
55.6	6.30722
55.82	7.361
56.04	3.50378
56.26	6.43891
56.48	13.1163
56.7	2.75742
56.92	5.53856
57.14	0.905585
57.36	1.22029
57.58	17.8264
57.8	62.4804
58.02	33.0117
58.24	21.734
58.46	2.31537
58.68	4.93752
58.9	17.8019
59.12	3.61244
59.34	11.4684
59.56	8.52566
59.78	15.0087
60	13.9384
60.22	0.113523
60.44	4.35734
60.66	8.05408
60.88	3.40999
61.1	35.9654
61.32	12.8778
61.54	0.146449
61.76	1.76761
61.98	2.41198
62.2	1.83695
62.42	9.8669
62.64	30.6001
62.86	87.9408
63.08	14.2256
63.3	36.1194
63.52	33.6103
63.74	13.7787
63.96	26.9724
64.18	14.1552
64.4	4.44686
64.62	0.262332
64.84	2.93722
65.06	9.28392
65.28	25.7929
65.5	15.1933
65.72	26.0794
65.94	26.4143
66.16	6.64622
66.38	3.18353
66.6	2.42241
66.82	6.78185
67.04	3.24283
67.26	1.03659
67.48	1.15818
67.7	6.07006
67.92	1.04518
68.14	8.34908
68.36	0.398561
68.58	3.40247
68.8	0.075475
69.02	12.8963
69.24	3.33935
69.46	0.464229
69.68	0.97884
69.9	8.91852
70.12	0.031525
70.34	0.647245
70.56	40.1779
70.78	25.2125
71	4.25962
71.22	4.42618
71.44	6.40301
71.66	17.5924
71.88	7.49188
72.1	2.36228
72.32	1.07743
72.54	2.90294
72.76	7.23946
72.98	1.01971
73.2	8.76724
73.42	7.50119
73.64	11.1425
73.86	14.9085
74.08	17.9585
74.3	14.4946
74.52	7.95037
74.74	29.4128
74.96	25.9358
75.18	11.2379
75.4	0.598114
75.62	3.42784
75.84	2.61576
76.06	0.673071
76.28	15.6525
76.5	5.61091
76.72	8.23173
76.94	24.9665
77.16	7.03778
77.38	3.64237
77.6	3.67593
77.82	2.78362
78.04	5.14902
78.26	4.56822
78.48	20.9298
78.7	3.21784
78.92	1.4675
79.14	7.65327
79.36	4.71034
79.58	4.55319
79.8	4.74964
80.02	0.287537
80.24	11.6285
80.46	2.2922
80.68	2.01944
80.9	7.82594
81.12	12.8177
81.34	11.5337
81.56	6.43842
81.78	5.68651
82	7.78097
82.22	2.71884
82.44	0.117551
82.66	6.29025
82.88	4.60838
83.1	9.06819
83.32	5.18059
83.54	7.23366
83.76	2.33619
83.98	11.2614
84.2	3.23307
84.42	0.241067
84.64	8.14874
84.86	22.1838
85.08	8.30533
85.3	16.3374
85.52	1.08136
85.74	0.280879
85.96	10.4663
86.18	1.99759
86.4	7.31331
86.62	3.63601
86.84	5.82824
87.06	8.99685
87.28	2.02392
87.5	0.86908
87.72	1.27659
87.94	6.14445
88.16	5.04884
88.38	4.76853
88.6	3.41787
88.82	4.27208
89.04	12.0627
89.26	12.7984
89.48	9.27103
89.7	9.25072
89.92	8.52753
