Measurement: Powder, Xray Data XY Processed
Mineral: Augelite
Rruff sample: R050100
Ideal chemistry: Al_2_PO_4_(OH)_3_
Locality: Rapid Creek, Yukon Territory, Canada
Source: Rock Currier
Description: Pale green thick tabular crystals
Diffraction sample description: Powder
Measured chemistry: Al_2.00_(P_1.00_O_4_)(OH_0.98_F_0.02_)_3_
Cell parameters: a: 13.1264(5) b: 8.0040(3) c: 5.0795(2) alpha: 90. beta: 112.248(3) gamma: 90. volume: 493.94(3) crystal system: monoclinic
x	intensity
5	0
5.22	13.5136
5.44	10.2173
5.66	13.7636
5.88	14.6088
6.1	3.89166
6.32	7.90939
6.54	9.03717
6.76	0.830521
6.98	3.30159
7.2	8.45912
7.42	4.5567
7.64	7.43782
7.86	6.48232
8.08	9.30082
8.3	12.7632
8.52	5.1859
8.74	3.51832
8.96	13.6284
9.18	12.7755
9.4	1.15391
9.62	2.12539
9.84	1.16969
10.06	9.28881
10.28	4.13101
10.5	9.06323
10.72	0.902308
10.94	10.067
11.16	2.12484
11.38	1.03137
11.6	4.06899
11.82	5.15779
12.04	7.76268
12.26	10.5512
12.48	11.4916
12.7	1.38373
12.92	8.31965
13.14	9.20578
13.36	5.19284
13.58	8.05677
13.8	1.08298
14.02	7.10259
14.24	3.96819
14.46	6.03793
14.68	1.27111
14.9	14.4852
15.12	5.61657
15.34	10.6277
15.56	8.07419
15.78	1.27138
16	8.35773
16.22	6.44904
16.44	6.37145
16.66	6.38191
16.88	0.373189
17.1	5.99003
17.32	6.65514
17.54	1.38111
17.76	9.04602
17.98	4.39374
18.2	5.94149
18.42	7.54722
18.64	9.32426
18.86	341.942
19.08	100.006
19.3	2.6454
19.52	11.2574
19.74	2.45828
19.96	8.15842
20.18	2.92108
20.4	3.01076
20.62	5.82421
20.84	16.9804
21.06	4.65315
21.28	8.48607
21.5	8.37596
21.72	2.31102
21.94	8.29927
22.16	189.762
22.38	14.8488
22.6	19.8354
22.82	20.3723
23.04	12.9832
23.26	3.5754
23.48	8.18448
23.7	8.57381
23.92	4.21304
24.14	15.9182
24.36	5.1651
24.58	27.0897
24.8	8.81543
25.02	0.195452
25.24	87.6916
25.46	144.904
25.68	23.4054
25.9	3.99347
26.12	6.0671
26.34	13.2092
26.56	116.076
26.78	222.781
27	17.7056
27.22	10.3675
27.44	3.49947
27.66	1.6035
27.88	9.42374
28.1	4.19459
28.32	69.716
28.54	15.0407
28.76	18.5294
28.98	5.35007
29.2	21.641
29.42	54.1125
29.64	12.8885
29.86	4.37017
30.08	6.86749
30.3	13.3009
30.52	2.7815
30.74	7.21703
30.96	18.5607
31.18	18.5653
31.4	4.87537
31.62	7.13496
31.84	10.897
32.06	7.98246
32.28	12.0843
32.5	5.63421
32.72	4.57582
32.94	13.7815
33.16	0.087726
33.38	4.02149
33.6	4.90731
33.82	8.2267
34.04	9.9852
34.26	7.69092
34.48	26.5904
34.7	5.47716
34.92	7.3046
35.14	4.20309
35.36	41.9923
35.58	11.1527
35.8	3.54167
36.02	81.8118
36.24	45.0144
36.46	38.1273
36.68	7.32429
36.9	2.41202
37.12	20.5093
37.34	1.59166
37.56	8.75158
37.78	23.0255
38	3.12795
38.22	5.98832
38.44	5.72537
38.66	13.5314
38.88	4.90976
39.1	1.09916
39.32	5.26525
39.54	9.40046
39.76	5.57162
39.98	3.57073
40.2	4.54802
40.42	12.2543
40.64	5.19274
40.86	8.45741
41.08	11.817
41.3	6.00352
41.52	3.31777
41.74	14.3703
41.96	2.50025
42.18	7.5468
42.4	8.53532
42.62	10.3849
42.84	0.215974
43.06	1.00223
43.28	15.7525
43.5	9.67675
43.72	31.0316
43.94	7.65996
44.16	2.55339
44.38	1.24511
44.6	3.33103
44.82	4.16966
45.04	0.170829
45.26	93.3567
45.48	21.1278
45.7	9.6577
45.92	6.07825
46.14	9.7047
46.36	63.1369
46.58	12.6611
46.8	99.1623
47.02	8.9001
47.24	9.2236
47.46	20.4969
47.68	3.3826
47.9	16.3498
48.12	6.32827
48.34	5.14525
48.56	5.55599
48.78	61.7977
49	17.1214
49.22	9.5248
49.44	5.30964
49.66	8.36895
49.88	8.87723
50.1	8.66543
50.32	9.26399
50.54	3.56643
50.76	15.9238
50.98	6.19131
51.2	4.79028
51.42	5.18167
51.64	2.60403
51.86	2.94671
52.08	4.08939
52.3	8.09135
52.52	8.09248
52.74	6.97046
52.96	5.57687
53.18	14.4785
53.4	9.29549
53.62	3.04324
53.84	6.89524
54.06	4.96556
54.28	8.90633
54.5	12.0803
54.72	6.2782
54.94	1.041
55.16	2.24727
55.38	2.38673
55.6	2.5186
55.82	4.02106
56.04	8.45111
56.26	5.64718
56.48	0.544917
56.7	3.40221
56.92	3.21986
57.14	4.00153
57.36	0.032198
57.58	11.0399
57.8	36.9118
58.02	12.4801
58.24	31.1734
58.46	8.73012
58.68	0.383368
58.9	12.1137
59.12	8.20374
59.34	4.14401
59.56	2.0217
59.78	6.70716
60	10.3981
60.22	2.70305
60.44	13.8108
60.66	6.25811
60.88	3.37381
61.1	12.4416
61.32	2.53526
61.54	9.08642
61.76	1.14004
61.98	6.68179
62.2	5.40081
62.42	2.03918
62.64	31.5282
62.86	59.1975
63.08	11.7242
63.3	15.6907
63.52	26.9188
63.74	17.3455
63.96	46.7452
64.18	11.9539
64.4	5.18556
64.62	2.45396
64.84	2.20373
65.06	1.91623
65.28	14.4537
65.5	6.92157
65.72	17.0555
65.94	56.1677
66.16	13.1384
66.38	6.00938
66.6	11.3578
66.82	0.881948
67.04	4.04888
67.26	6.23526
67.48	5.51196
67.7	5.90855
67.92	4.66811
68.14	10.6005
68.36	1.4655
68.58	7.72368
68.8	1.76777
69.02	4.80682
69.24	5.5835
69.46	4.49205
69.68	6.24257
69.9	9.1594
70.12	2.80154
70.34	1.37494
70.56	51.3836
70.78	20.0415
71	12.0173
71.22	0.612187
71.44	2.13685
71.66	3.11598
71.88	3.29847
72.1	9.69212
72.32	2.60396
72.54	4.47364
72.76	1.42971
72.98	0.395242
73.2	3.36405
73.42	7.27337
73.64	2.76426
73.86	12.7943
74.08	6.9108
74.3	14.2215
74.52	15.2509
74.74	21.5984
74.96	15.9638
75.18	7.16154
75.4	8.31039
75.62	5.40115
75.84	6.60638
76.06	0.669082
76.28	4.95578
76.5	4.70121
76.72	5.237
76.94	13.2935
77.16	8.11674
77.38	1.97584
77.6	3.0699
77.82	0.73135
78.04	10.8135
78.26	8.14593
78.48	6.34616
78.7	14.2969
78.92	10.6374
79.14	2.05965
79.36	4.94664
79.58	8.2187
79.8	0.369389
80.02	5.43107
80.24	4.36068
80.46	3.09747
80.68	1.2942
80.9	8.27686
81.12	13.4897
81.34	5.17865
81.56	7.18137
81.78	3.05701
82	2.06202
82.22	3.21806
82.44	3.21536
82.66	0.44858
82.88	7.55769
83.1	5.52222
83.32	4.83038
83.54	1.66545
83.76	0.745342
83.98	1.79968
84.2	1.17235
84.42	2.66601
84.64	6.90867
84.86	9.00105
85.08	27.922
85.3	9.71227
85.52	2.65277
85.74	6.60777
85.96	8.7822
86.18	3.88863
86.4	4.94124
86.62	4.01519
86.84	4.05709
87.06	2.00504
87.28	6.21354
87.5	5.23658
87.72	2.28729
87.94	6.088
88.16	2.90938
88.38	1.36418
88.6	4.58419
88.82	3.51131
89.04	12.2944
89.26	13.9075
89.48	1.48632
89.7	5.69853
89.92	2.65605
