Measurement: Powder, Xray Data XY Processed
Mineral: Aurichalcite
Rruff sample: R050297
Ideal chemistry: Zn^2+^_5_(CO_3_)_2_(OH)_6_
Locality: 79 mine, 4th level, Hayden, Gila County, Arizona, USA
Source: George Godas, John Callahan
Description: Sprays of greenish blue lathlike crystals
Diffraction sample description: Powder
Measured chemistry: (Zn_0.68_Cu_0.32_)_5_(CO_3_)_2_(OH)_6_
Cell parameters: a: 13.813(1) b: 6.4099(3) c: 5.2877(6) alpha: 90 beta: 100.74(1) gamma: 90 volume: 459.97(5) crystal system: monoclinic
x	intensity
5	0
5.22	4.82837
5.44	4.08463
5.66	5.76973
5.88	28.5761
6.1	15.6306
6.32	5.77334
6.54	65.8223
6.76	30.1394
6.98	12.9641
7.2	10.6306
7.42	21.8856
7.64	15.9355
7.86	9.42718
8.08	15.9767
8.3	18.4725
8.52	6.16552
8.74	17.7788
8.96	5.09993
9.18	20.3224
9.4	13.5637
9.62	10.8235
9.84	16.9023
10.06	14.9896
10.28	18.3401
10.5	15.3771
10.72	23.6374
10.94	26.3973
11.16	4.82306
11.38	20.9312
11.6	16.4553
11.82	82.9194
12.04	5.77953
12.26	1.47428
12.48	24.3606
12.7	63.5576
12.92	280.974
13.14	608.711
13.36	50.4501
13.58	39.9141
13.8	24.812
14.02	16.1807
14.24	35.7594
14.46	11.1873
14.68	11.7055
14.9	22.6932
15.12	6.69021
15.34	19.0839
15.56	4.5373
15.78	4.05572
16	13.8913
16.22	11.3853
16.44	9.83383
16.66	5.82969
16.88	0.401733
17.1	22.7361
17.32	3.32604
17.54	18.2636
17.76	1.53223
17.98	0.550026
18.2	4.35578
18.42	11.2009
18.64	7.65604
18.86	16.906
19.08	71.0839
19.3	7.86499
19.52	46.3093
19.74	35.0865
19.96	8.65459
20.18	18.5971
20.4	13.6855
20.62	13.5701
20.84	6.45777
21.06	11.2349
21.28	24.6876
21.5	9.80754
21.72	40.0704
21.94	35.9864
22.16	4.65501
22.38	13.0589
22.6	2.17685
22.82	15.1845
23.04	5.369
23.26	17.6072
23.48	55.0281
23.7	18.0806
23.92	47.5951
24.14	721.545
24.36	18.1593
24.58	15.7484
24.8	4.96692
25.02	0.839493
25.24	13.1517
25.46	12.7418
25.68	1.68026
25.9	15.7295
26.12	7.24965
26.34	95.8601
26.56	8.56474
26.78	5.36233
27	16.6832
27.22	18.0205
27.44	173.097
27.66	29.7432
27.88	135.26
28.1	9.29326
28.32	6.23257
28.54	74.9796
28.76	48.2887
28.98	4.01178
29.2	15.9845
29.42	16.4507
29.64	5.9983
29.86	75.1198
30.08	1.87361
30.3	15.5672
30.52	12.1182
30.74	16.1858
30.96	107.787
31.18	1.29088
31.4	5.55311
31.62	13.6851
31.84	98.311
32.06	16.7635
32.28	20.717
32.5	0.818081
32.72	46.499
32.94	133.264
33.16	7.255
33.38	1.25779
33.6	26.803
33.82	32.6841
34.04	73.3356
34.26	254.833
34.48	46.0082
34.7	13.7172
34.92	4.83128
35.14	10.3004
35.36	11.7306
35.58	5.94436
35.8	23.1084
36.02	144.094
36.24	34.1056
36.46	79.462
36.68	22.7299
36.9	25.7764
37.12	78.1629
37.34	17.3671
37.56	18.1217
37.78	10.9553
38	8.92133
38.22	2.58887
38.44	9.59819
38.66	66.6869
38.88	11.8617
39.1	19.2588
39.32	30.2153
39.54	12.7365
39.76	22.8665
39.98	20.7816
40.2	21.2131
40.42	80.7421
40.64	17.9256
40.86	11.1729
41.08	17.3498
41.3	7.00289
41.52	5.42979
41.74	4.43219
41.96	25.1397
42.18	28.6306
42.4	13.7749
42.62	28.3795
42.84	39.8943
43.06	9.05313
43.28	20.625
43.5	3.49123
43.72	10.2364
43.94	8.20117
44.16	12.4593
44.38	11.9578
44.6	12.8182
44.82	19.8315
45.04	13.2938
45.26	10.6052
45.48	1.05024
45.7	7.93123
45.92	12.4919
46.14	16.5658
46.36	2.37658
46.58	17.2185
46.8	6.9934
47.02	58.0274
47.24	20.7661
47.46	7.6837
47.68	2.94634
47.9	2.43733
48.12	26.9638
48.34	7.57843
48.56	5.28853
48.78	2.39793
49	11.1475
49.22	22.1526
49.44	6.33972
49.66	23.0544
49.88	71.847
50.1	36.3599
50.32	4.02578
50.54	11.6048
50.76	7.1888
50.98	12.8515
51.2	10.987
51.42	20.8355
51.64	14.8468
51.86	14.2951
52.08	16.2196
52.3	22.9127
52.52	7.41513
52.74	1.88171
52.96	10.1611
53.18	10.3589
53.4	45.0887
53.62	1.36372
53.84	16.9015
54.06	214.317
54.28	12.6802
54.5	9.89418
54.72	13.2375
54.94	25.4679
55.16	50.8304
55.38	91.9084
55.6	52.895
55.82	10.5897
56.04	8.71185
56.26	9.13565
56.48	5.9712
56.7	9.80196
56.92	12.5366
57.14	5.55463
57.36	8.53689
57.58	28.5979
57.8	25.7398
58.02	4.29576
58.24	22.3136
58.46	3.96486
58.68	13.6282
58.9	19.2283
59.12	19.8091
59.34	17.9378
59.56	24.4537
59.78	15.42
60	39.3774
60.22	24.6016
60.44	7.31094
60.66	10.5664
60.88	23.5521
61.1	30.6894
61.32	30.8559
61.54	25.901
61.76	17.5932
61.98	19.9647
62.2	7.11114
62.42	27.8649
62.64	19.9745
62.86	11.688
63.08	14.1263
63.3	5.80187
63.52	11.4445
63.74	6.01226
63.96	5.79386
64.18	20.9165
64.4	2.84261
64.62	9.58501
64.84	13.5107
65.06	8.03345
65.28	26.4156
65.5	26.1817
65.72	12.9204
65.94	7.51311
66.16	2.12368
66.38	12.6301
66.6	10.4518
66.82	9.324
67.04	8.17939
67.26	17.197
67.48	6.95614
67.7	20.8137
67.92	28.1823
68.14	0.962364
68.36	18.6744
68.58	22.0365
68.8	21.8696
69.02	13.0413
69.24	17.1936
69.46	6.6821
69.68	0.505548
69.9	6.84629
70.12	0.23979
70.34	15.4316
70.56	14.6143
70.78	2.27842
71	15.0636
71.22	3.1688
71.44	6.44107
71.66	11.8554
71.88	10.4813
72.1	19.5497
72.32	23.1837
72.54	24.9168
72.76	9.52603
72.98	10.0134
73.2	6.98457
73.42	5.41909
73.64	16.4687
73.86	10.3691
74.08	18.1797
74.3	7.72902
74.52	5.17173
74.74	10.6734
74.96	24.3829
75.18	2.98464
75.4	3.23664
75.62	1.66679
75.84	25.8656
76.06	12.066
76.28	19.186
76.5	19.2149
76.72	6.37998
76.94	1.46251
77.16	13.6473
77.38	11.7542
77.6	12.0029
77.82	2.8882
78.04	17.8774
78.26	7.60569
78.48	0.198296
78.7	12.5324
78.92	5.25172
79.14	14.9198
79.36	7.30151
79.58	0.651642
79.8	9.94347
80.02	4.9556
80.24	5.06369
80.46	10.3215
80.68	7.35891
80.9	11.0905
81.12	8.8159
81.34	9.09174
81.56	3.30586
81.78	6.24781
82	2.08721
82.22	14.0251
82.44	3.52441
82.66	22.3143
82.88	13.2215
83.1	24.6328
83.32	3.57726
83.54	0.14608
83.76	0.967688
83.98	13.4472
84.2	3.90581
84.42	14.9544
84.64	7.85088
84.86	0.552422
85.08	6.14124
85.3	4.08371
85.52	13.2076
85.74	8.21787
85.96	6.14626
86.18	6.57535
86.4	13.0681
86.62	11.9575
86.84	8.25163
87.06	20.3829
87.28	10.4877
87.5	11.3931
87.72	14.6084
87.94	6.59882
88.16	13.8323
88.38	8.24324
88.6	6.27774
88.82	6.71956
89.04	17.0685
89.26	15.6653
89.48	17.4654
89.7	8.92695
89.92	1.06547
