Measurement: Powder, Xray Data XY Processed
Mineral: Axinite-(Fe)
Rruff sample: R050061
Ideal chemistry: Ca_4_Fe^2+^_2_Al_4_[B_2_Si_8_O_30_](OH)_2_
Locality: Jamestown, California, USA
Source: Rock Currier
Description: Brown colored axe-head-shaped single crystals
Diffraction sample description: Powder
Measured chemistry: Ca_2.00_(Fe^2+^_0.73_Mg_0.20_Mn_0.07_)Al_2.00_BSi_4_O_15_(OH)
Cell parameters: a: 7.1468(7) b: 9.191(1) c: 8.952(2) alpha: 91.83(2) beta: 98.14(1) gamma: 77.31(2) volume: 567.9(1) crystal system: triclinic
x	intensity
5	0
5.22	9.93
5.44	13.341
5.66	20.702
5.88	2.069
6.1	17.561
6.32	11.541
6.54	20.214
6.76	23.982
6.98	16.225
7.2	27.116
7.42	6.495
7.64	9.556
7.86	12.649
8.08	11.942
8.3	8.813
8.52	10.806
8.74	8.789
8.96	15.745
9.18	1.251
9.4	7.5
9.62	16.611
9.84	15.397
10.06	4.663
10.28	9.359
10.5	11.695
10.72	7.972
10.94	20.734
11.16	11.466
11.38	3.032
11.6	5.681
11.82	12.927
12.04	5.742
12.26	27.135
12.48	21.812
12.7	11.32
12.92	3.131
13.14	11.393
13.36	4.24
13.58	16.638
13.8	4.465
14.02	21.664
14.24	18.444
14.46	5.367
14.68	13.888
14.9	20.35
15.12	5.74
15.34	7.648
15.56	7.928
15.78	12.31
16	17.984
16.22	22.053
16.44	24.714
16.66	11.511
16.88	10.998
17.1	15.487
17.32	13.375
17.54	8.269
17.76	9.042
17.98	12.262
18.2	19.415
18.42	6.164
18.64	14.746
18.86	6.283
19.08	8.929
19.3	19.483
19.52	7.826
19.74	11.029
19.96	10.062
20.18	10.293
20.4	12.027
20.62	11.949
20.84	22.945
21.06	19.635
21.28	12.553
21.5	1.381
21.72	27.763
21.94	6.494
22.16	12.412
22.38	25.234
22.6	16.297
22.82	13.157
23.04	15.155
23.26	13.875
23.48	13.463
23.7	9.748
23.92	10.466
24.14	14.269
24.36	5.318
24.58	11.855
24.8	0.836
25.02	6.493
25.24	10.99
25.46	10.411
25.68	45.292
25.9	133.72
26.12	34.933
26.34	16.906
26.56	9.056
26.78	8.727
27	8.745
27.22	47.749
27.44	0.817
27.66	6.006
27.88	20.818
28.1	10.374
28.32	127.981
28.54	24.82
28.76	4.429
28.98	18.728
29.2	14.975
29.42	11.342
29.64	15.5
29.86	52.904
30.08	26.214
30.3	50.816
30.52	5.574
30.74	8.801
30.96	31.538
31.18	23.504
31.4	10.693
31.62	23.97
31.84	23.394
32.06	157.128
32.28	23.136
32.5	18.211
32.72	6.038
32.94	7.957
33.16	12.804
33.38	1.886
33.6	9.723
33.82	17.041
34.04	23.966
34.26	13.451
34.48	1.082
34.7	20.202
34.92	26.948
35.14	41.486
35.36	15.118
35.58	4.813
35.8	10.9
36.02	3.771
36.24	3.781
36.46	10.627
36.68	13.681
36.9	29.438
37.12	24.826
37.34	25.055
37.56	29.972
37.78	11.276
38	5.582
38.22	32.612
38.44	18.117
38.66	4.096
38.88	3.069
39.1	9.769
39.32	9.292
39.54	24.368
39.76	1.794
39.98	25.843
40.2	16.275
40.42	11.679
40.64	6.229
40.86	12.365
41.08	4.404
41.3	66.306
41.52	21.314
41.74	9.131
41.96	34.395
42.18	0.864
42.4	16.797
42.62	1.45
42.84	12.217
43.06	5.631
43.28	7.522
43.5	21.193
43.72	2.418
43.94	3.732
44.16	27.701
44.38	11.624
44.6	31.63
44.82	14.077
45.04	17.337
45.26	43.807
45.48	53.62
45.7	32.974
45.92	15.311
46.14	11.187
46.36	18.489
46.58	9.719
46.8	9.017
47.02	4.629
47.24	9.894
47.46	20.458
47.68	2.844
47.9	0.282
48.12	10.37
48.34	19.893
48.56	7.675
48.78	14.079
49	10.911
49.22	7.354
49.44	12.203
49.66	5.022
49.88	17.978
50.1	9.24
50.32	16.142
50.54	23.113
50.76	16.419
50.98	7.234
51.2	19.03
51.42	13.195
51.64	4.721
51.86	1.493
52.08	0.675
52.3	3.23
52.52	18.019
52.74	33.203
52.96	16.781
53.18	6.866
53.4	9.255
53.62	1.321
53.84	13.566
54.06	28.506
54.28	15.367
54.5	16.262
54.72	12.891
54.94	2.963
55.16	33.748
55.38	31.292
55.6	0.33
55.82	24.454
56.04	18.149
56.26	11.22
56.48	45.987
56.7	7.893
56.92	9.056
57.14	5.901
57.36	6.889
57.58	22.92
57.8	23.346
58.02	15.249
58.24	21.448
58.46	2.677
58.68	29.895
58.9	11.396
59.12	13.629
59.34	0.16
59.56	9.353
59.78	20.047
60	10.083
60.22	20.185
60.44	7.701
60.66	8.276
60.88	0.406
61.1	12.41
61.32	33.332
61.54	10.865
61.76	11.095
61.98	13.442
62.2	28.527
62.42	8.962
62.64	8.151
62.86	15.369
63.08	20.301
63.3	9.92
63.52	15.797
63.74	28.716
63.96	25.265
64.18	17.365
64.4	3.895
64.62	14.456
64.84	12.99
65.06	5.872
65.28	3.195
65.5	4.389
65.72	19.297
65.94	9.179
66.16	6.187
66.38	6.389
66.6	5.554
66.82	35.63
67.04	20.142
67.26	1.668
67.48	8.62
67.7	12.608
67.92	15.878
68.14	2.074
68.36	4.542
68.58	1.581
68.8	25.402
69.02	17.832
69.24	19.135
69.46	15.312
69.68	12.556
69.9	19.817
70.12	10.802
70.34	10.768
70.56	12.573
70.78	5.781
71	17.933
71.22	29.925
71.44	32.113
71.66	5.84
71.88	8.617
72.1	14.348
72.32	12.895
72.54	1.972
72.76	4.344
72.98	4.638
73.2	7.274
73.42	22.323
73.64	14.406
73.86	8.958
74.08	23.847
74.3	7.732
74.52	24.003
74.74	22.844
74.96	2.875
75.18	13.067
75.4	9.213
75.62	12.401
75.84	10.785
76.06	5.795
76.28	16.469
76.5	5.603
76.72	4.533
76.94	17.889
77.16	5.923
77.38	6.771
77.6	5.947
77.82	19.456
78.04	10.956
78.26	17.294
78.48	24.333
78.7	14.482
78.92	3.885
79.14	19.55
79.36	10.752
79.58	5.119
79.8	10.336
80.02	4.641
80.24	2.296
80.46	2.587
80.68	17.578
80.9	6.572
81.12	16.53
81.34	5.041
81.56	12.672
81.78	2.013
82	4.574
82.22	3.358
82.44	10.207
82.66	4.101
82.88	8.764
83.1	16.39
83.32	5.212
83.54	2.774
83.76	25.666
83.98	12.574
84.2	5.302
84.42	14.133
84.64	0.196
84.86	12.988
85.08	9.083
85.3	4.096
85.52	9.653
85.74	12.948
85.96	6.306
86.18	13.879
86.4	28.064
86.62	11.074
86.84	13.195
87.06	10.29
87.28	8.35
87.5	17.488
87.72	13.608
87.94	9.186
88.16	17.538
88.38	14.146
88.6	15.384
88.82	12.444
89.04	12.617
89.26	4.858
89.48	11.685
89.7	3.613
89.92	12.185
