Measurement: Powder, Xray Data XY Processed
Mineral: Azurite
Rruff sample: R050638
Ideal chemistry: Cu^2+^_3_(CO_3_)_2_(OH)_2_
Locality: Zacatecas, Mexico
Source: University of Arizona Mineral Museum
Description: Blue bladed crystals
Diffraction sample description: Powder
Measured chemistry: Cu_3.00_(CO_3_)_2_(OH)_2_
Cell parameters: a: 5.00994(8) b: 5.84723(8) c: 10.3456(3) alpha: 90. beta: 92.447(2) gamma: 90. volume: 302.793(8) crystal system: monoclinic
x	intensity
5	0
5.22	2.329
5.44	7.755
5.66	21.59
5.88	20.191
6.1	13.908
6.32	7.399
6.54	8.976
6.76	9.915
6.98	23.469
7.2	13.896
7.42	3.533
7.64	5.36
7.86	14.381
8.08	15.684
8.3	5.667
8.52	8.415
8.74	10.065
8.96	22.293
9.18	12.629
9.4	7.011
9.62	10.477
9.84	0.097
10.06	2.984
10.28	5.958
10.5	2.337
10.72	0.136
10.94	16.095
11.16	29.631
11.38	16.522
11.6	4.375
11.82	2.454
12.04	15.968
12.26	8.282
12.48	8.207
12.7	10.305
12.92	14.091
13.14	6.063
13.36	7.534
13.58	26.382
13.8	8.011
14.02	15.705
14.24	14.63
14.46	30.893
14.68	16.569
14.9	17.177
15.12	3.783
15.34	14.761
15.56	11.284
15.78	24.088
16	23.223
16.22	2.306
16.44	28.432
16.66	11.66
16.88	11.495
17.1	59.394
17.32	34.038
17.54	57.799
17.76	173.541
17.98	13.814
18.2	25.681
18.42	7.211
18.64	9.707
18.86	3.169
19.08	21.622
19.3	17.895
19.52	19.765
19.74	24.77
19.96	25.712
20.18	11.997
20.4	10.48
20.62	16.651
20.84	16.661
21.06	11.65
21.28	30.15
21.5	9.087
21.72	12.69
21.94	10.207
22.16	12.906
22.38	22.175
22.6	14.176
22.82	19.95
23.04	31.902
23.26	5.18
23.48	60.771
23.7	13.952
23.92	8.207
24.14	33.328
24.36	75.157
24.58	20.755
24.8	3.674
25.02	18.892
25.24	999.173
25.46	51.503
25.68	6.038
25.9	19.598
26.12	29.868
26.34	5.535
26.56	9.355
26.78	14.025
27	21.619
27.22	5.396
27.44	15.926
27.66	9.891
27.88	1.131
28.1	16.793
28.32	6.953
28.54	8.798
28.76	67.8
28.98	21.604
29.2	12.428
29.42	15.176
29.64	34.85
29.86	16.724
30.08	26.619
30.3	1.795
30.52	17.479
30.74	26.477
30.96	3.261
31.18	21.949
31.4	19.248
31.62	4.163
31.84	105.767
32.06	29.432
32.28	26.727
32.5	1.115
32.72	10.719
32.94	1.405
33.16	12.487
33.38	34.917
33.6	24.603
33.82	30.882
34.04	34.925
34.26	8.496
34.48	24.671
34.7	63.03
34.92	12.71
35.14	13.627
35.36	122.619
35.58	184.67
35.8	102.684
36.02	34.002
36.24	17.436
36.46	52.719
36.68	7.659
36.9	1.627
37.12	21.466
37.34	2.214
37.56	0.63
37.78	7.485
38	16.879
38.22	8.712
38.44	21.507
38.66	54.205
38.88	5.955
39.1	1.238
39.32	31.715
39.54	62.611
39.76	60.384
39.98	53.199
40.2	61.53
40.42	37.031
40.64	123.252
40.86	20.89
41.08	16.536
41.3	7.299
41.52	32.731
41.74	79.127
41.96	1.861
42.18	21.058
42.4	7.441
42.62	7.933
42.84	0.425
43.06	35.151
43.28	12.414
43.5	6.29
43.72	8.474
43.94	0.767
44.16	17.579
44.38	3.679
44.6	14.13
44.82	9.646
45.04	9.598
45.26	33.389
45.48	3.717
45.7	6.636
45.92	24.717
46.14	17.726
46.36	1.719
46.58	140.383
46.8	28.858
47.02	22.933
47.24	9.722
47.46	5.82
47.68	10.08
47.9	12.861
48.12	24.948
48.34	22.767
48.56	39.309
48.78	17.8
49	13.69
49.22	20.792
49.44	11.047
49.66	29.846
49.88	28.706
50.1	99.743
50.32	24.369
50.54	2.949
50.76	8.206
50.98	69.75
51.2	69.3
51.42	27.143
51.64	17.462
51.86	19.972
52.08	0.429
52.3	28.114
52.52	6.499
52.74	11.244
52.96	6.47
53.18	29.353
53.4	25.93
53.62	5.562
53.84	4.854
54.06	21.736
54.28	33.842
54.5	4.195
54.72	12.659
54.94	7.139
55.16	24.073
55.38	28.327
55.6	20.784
55.82	12.884
56.04	20.085
56.26	2.094
56.48	5.417
56.7	9.141
56.92	22.289
57.14	10.708
57.36	19.667
57.58	33.159
57.8	82.396
58.02	29.888
58.24	13.877
58.46	22.765
58.68	11.906
58.9	90.823
59.12	13.676
59.34	11.895
59.56	21.905
59.78	18.909
60	16.591
60.22	13.489
60.44	3.219
60.66	70.179
60.88	16.346
61.1	33.907
61.32	76.347
61.54	27.572
61.76	29.544
61.98	3.771
62.2	14.759
62.42	14.447
62.64	9.571
62.86	66.669
63.08	34.453
63.3	8.785
63.52	6.046
63.74	14.592
63.96	3.589
64.18	6.41
64.4	19.012
64.62	24.163
64.84	14.171
65.06	6.857
65.28	21.883
65.5	22.202
65.72	15.633
65.94	29.548
66.16	18.338
66.38	21.524
66.6	9.738
66.82	13.485
67.04	12.982
67.26	41.425
67.48	29.181
67.7	15.534
67.92	14.942
68.14	30.742
68.36	18.4
68.58	9.85
68.8	19.337
69.02	28.697
69.24	17.706
69.46	57.209
69.68	17.836
69.9	18.83
70.12	7.503
70.34	0.242
70.56	17.935
70.78	8.843
71	4.991
71.22	5.992
71.44	26.68
71.66	10.016
71.88	7.536
72.1	6.35
72.32	34.347
72.54	3.918
72.76	16.864
72.98	38.193
73.2	27.466
73.42	23.627
73.64	24.654
73.86	16.692
74.08	30.579
74.3	12.776
74.52	1.261
74.74	21.361
74.96	5.942
75.18	31.16
75.4	11.526
75.62	14.325
75.84	46.743
76.06	39.453
76.28	20.657
76.5	14.076
76.72	12.077
76.94	5.973
77.16	39.811
77.38	11.535
77.6	19.285
77.82	8.652
78.04	7.06
78.26	15.218
78.48	14.698
78.7	13.711
78.92	12.577
79.14	0.785
79.36	22.995
79.58	32.646
79.8	21.737
80.02	13.963
80.24	2.874
80.46	12.03
80.68	2.169
80.9	1.631
81.12	12.556
81.34	20.802
81.56	18.997
81.78	23.953
82	5.552
82.22	8.099
82.44	27.183
82.66	1.062
82.88	7.612
83.1	18.267
83.32	17.499
83.54	22.605
83.76	50.959
83.98	11.211
84.2	5.942
84.42	22.997
84.64	4.117
84.86	13.65
85.08	17.686
85.3	25.7
85.52	9.606
85.74	2.13
85.96	14.201
86.18	15.884
86.4	20.975
86.62	10.976
86.84	21.062
87.06	8.345
87.28	23.025
87.5	16.138
87.72	14.365
87.94	7.111
88.16	15.254
88.38	29.478
88.6	2.51
88.82	27.009
89.04	10.943
89.26	26.282
89.48	20.478
89.7	12.569
89.92	32.494
