Measurement: Powder, Xray Data XY Processed
Mineral: Babingtonite
Rruff sample: R060093
Ideal chemistry: Ca_2_Fe^2+^Fe^3+^Si_5_O_14_(OH)
Locality: Iron Cap mine, Aravaipa District, Graham County, Arizona, USA
Source: University of Arizona Mineral Museum
Description: Dark prismatic striated crystals
Diffraction sample description: Powder
Measured chemistry: Ca_2.00_(Fe^2+^_0.54_Mn_0.46_)(Fe^3+^_0.96_Al_0.04_)Si_5.00_O_14_(OH)
Cell parameters: a: 7.503(5) b: 11.669(4) c: 6.699(1) alpha: 91.46(6) beta: 93.92(3) gamma: 104.2(1) volume: 560(1) crystal system: triclinic
x	intensity
5	0
5.22	6.078
5.44	5.566
5.66	12.953
5.88	15.941
6.1	10.23
6.32	7.081
6.54	24.022
6.76	3.326
6.98	14.827
7.2	7.764
7.42	0.25
7.64	8.914
7.86	28.243
8.08	7.269
8.3	12.484
8.52	5.802
8.74	1.112
8.96	12.437
9.18	12.373
9.4	22.044
9.62	27.21
9.84	4.805
10.06	21.033
10.28	6.985
10.5	10.4
10.72	6.384
10.94	14.982
11.16	8.692
11.38	9.892
11.6	22.638
11.82	9.761
12.04	18.319
12.26	10.461
12.48	9.376
12.7	16.505
12.92	6.813
13.14	25.123
13.36	26.083
13.58	18.913
13.8	10.112
14.02	17.592
14.24	21.935
14.46	3.868
14.68	26.051
14.9	11.85
15.12	15.998
15.34	0.202
15.56	8.322
15.78	5.347
16	13.375
16.22	1.729
16.44	16.822
16.66	11.533
16.88	9.133
17.1	13.378
17.32	16.697
17.54	20.811
17.76	3.623
17.98	17.868
18.2	2.584
18.42	6.957
18.64	5.92
18.86	31.368
19.08	7.192
19.3	17.963
19.52	15.81
19.74	8.461
19.96	19.023
20.18	7.758
20.4	11.24
20.62	18.116
20.84	10.666
21.06	14.774
21.28	8.474
21.5	13.547
21.72	24.186
21.94	7.48
22.16	8.606
22.38	6.761
22.6	11.929
22.82	19.054
23.04	19.067
23.26	13.824
23.48	17.79
23.7	13.024
23.92	19.92
24.14	5.447
24.36	14.169
24.58	13.844
24.8	13.534
25.02	14.295
25.24	9.862
25.46	19.477
25.68	30.362
25.9	21.751
26.12	9.773
26.34	9.327
26.56	7.479
26.78	2.95
27	5.656
27.22	25.74
27.44	4.029
27.66	1.729
27.88	20.057
28.1	3.872
28.32	22.054
28.54	57.145
28.76	21.393
28.98	0.777
29.2	23.916
29.42	15.283
29.64	54.998
29.86	26.908
30.08	2.999
30.3	44.315
30.52	36.648
30.74	16.801
30.96	51.574
31.18	40.884
31.4	29.962
31.62	3.669
31.84	9.432
32.06	5.776
32.28	18.426
32.5	24.508
32.72	33.223
32.94	5.544
33.16	22.188
33.38	11.329
33.6	3.316
33.82	14.043
34.04	29.868
34.26	14.736
34.48	17.736
34.7	11.42
34.92	3.285
35.14	11.175
35.36	14.003
35.58	15.858
35.8	0.268
36.02	6.801
36.24	5.683
36.46	43.026
36.68	23.624
36.9	23.959
37.12	0.24
37.34	11.207
37.56	7.894
37.78	9.958
38	19.442
38.22	7.704
38.44	3.42
38.66	24.141
38.88	16.457
39.1	18.23
39.32	2.407
39.54	19.945
39.76	12.152
39.98	2.613
40.2	35.643
40.42	13.25
40.64	11.749
40.86	34.454
41.08	17.696
41.3	11.736
41.52	38.326
41.74	19.126
41.96	7.057
42.18	6.759
42.4	12.901
42.62	22.979
42.84	15.053
43.06	24.266
43.28	31.769
43.5	11.283
43.72	51.491
43.94	10.062
44.16	3.064
44.38	30.371
44.6	31.538
44.82	20
45.04	16.385
45.26	1.671
45.48	15.999
45.7	0.402
45.92	13.336
46.14	7.212
46.36	14.84
46.58	20.476
46.8	11.63
47.02	7.442
47.24	21.298
47.46	8.425
47.68	32.114
47.9	13.554
48.12	10.99
48.34	15.863
48.56	15.717
48.78	8.369
49	13.414
49.22	20.026
49.44	6.316
49.66	3.366
49.88	10.201
50.1	1.002
50.32	16.975
50.54	18.936
50.76	17.102
50.98	0.932
51.2	22.444
51.42	17.04
51.64	5.341
51.86	29.59
52.08	34.358
52.3	5.064
52.52	2.576
52.74	15.757
52.96	5.882
53.18	18.94
53.4	17.68
53.62	20.567
53.84	4.589
54.06	14.265
54.28	23
54.5	9.655
54.72	13.05
54.94	18.983
55.16	7.584
55.38	11.633
55.6	1.245
55.82	15.259
56.04	21.976
56.26	26.512
56.48	23.614
56.7	9.003
56.92	7.53
57.14	12.659
57.36	19.818
57.58	12.701
57.8	9.763
58.02	16.743
58.24	12.24
58.46	9.25
58.68	1.603
58.9	21.255
59.12	17.507
59.34	21.759
59.56	23.925
59.78	16.458
60	30.318
60.22	13.442
60.44	5.648
60.66	15.798
60.88	23.738
61.1	12.914
61.32	11.286
61.54	25.187
61.76	26.076
61.98	6.799
62.2	4.583
62.42	6.84
62.64	4.585
62.86	24.597
63.08	28.37
63.3	4.602
63.52	20.054
63.74	17.692
63.96	18.464
64.18	6.227
64.4	11.778
64.62	23.404
64.84	22.529
65.06	30.131
65.28	20.068
65.5	22.604
65.72	18.199
65.94	2.333
66.16	21.984
66.38	12.795
66.6	12.194
66.82	11.824
67.04	25.255
67.26	1.062
67.48	12.628
67.7	13.736
67.92	12.307
68.14	20.304
68.36	28.857
68.58	13.135
68.8	6.08
69.02	19.992
69.24	15.018
69.46	15.317
69.68	10.444
69.9	10.508
70.12	11.098
70.34	1.391
70.56	21.991
70.78	11.573
71	15.424
71.22	16.418
71.44	15.398
71.66	12.178
71.88	24.33
72.1	17.715
72.32	0.221
72.54	10.603
72.76	3.067
72.98	15.012
73.2	20.921
73.42	23.554
73.64	14.578
73.86	29.296
74.08	22.158
74.3	33.479
74.52	13.107
74.74	17.737
74.96	26.459
75.18	5.137
75.4	8.829
75.62	6.355
75.84	8.729
76.06	2.639
76.28	21.003
76.5	9.059
76.72	1.773
76.94	15.674
77.16	3.854
77.38	14.424
77.6	15.872
77.82	9.101
78.04	10.389
78.26	23.784
78.48	9.062
78.7	7.137
78.92	6.018
79.14	1.465
79.36	23.371
79.58	16.604
79.8	2.59
80.02	13.476
80.24	15.378
80.46	7.402
80.68	0.227
80.9	12.158
81.12	7.152
81.34	14.752
81.56	2.956
81.78	4.099
82	18.847
82.22	11.799
82.44	20.745
82.66	7.266
82.88	16.129
83.1	6.357
83.32	11.267
83.54	13.125
83.76	3.116
83.98	28.002
84.2	10.798
84.42	16.884
84.64	9.955
84.86	17.1
85.08	26.118
85.3	0.482
85.52	16.123
85.74	20.188
85.96	6.446
86.18	18.384
86.4	8.608
86.62	20.517
86.84	12.653
87.06	13.514
87.28	11.494
87.5	4.688
87.72	21.829
87.94	20.837
88.16	8.014
88.38	10.664
88.6	11.778
88.82	11.809
89.04	17.835
89.26	3.935
89.48	18.199
89.7	1.945
89.92	13.334
