Measurement: Powder, Xray Data XY Processed
Mineral: Baddeleyite
Rruff sample: R060078
Ideal chemistry: Zr^4+^O_2_
Locality: Wetloo mine, Mogok, Burma
Source: Marcus Origlieri
Description: Dark brown fragment
Diffraction sample description: Powder
Measured chemistry: (Zr_0.99_Hf_0.01_)_Î£=1_O_2_
Cell parameters: a: 5.1471(3) b: 5.2130(3) c: 5.3148(3) alpha: 90 beta: 99.215(4) gamma: 90 volume: 140.766(9) crystal system: monoclinic
x	intensity
5	0
5.22	14.391
5.44	4.695
5.66	4.55
5.88	11.616
6.1	3.75
6.32	3.177
6.54	3.306
6.76	7.626
6.98	5.853
7.2	6.336
7.42	0.896
7.64	4.288
7.86	3.624
8.08	5.049
8.3	2.331
8.52	0.313
8.74	5.885
8.96	5.034
9.18	0.057
9.4	4.948
9.62	2.881
9.84	1.747
10.06	1.665
10.28	3.634
10.5	5.497
10.72	4.423
10.94	3.242
11.16	3.229
11.38	1.193
11.6	0.191
11.82	7.161
12.04	5.263
12.26	0.62
12.48	1.427
12.7	4.499
12.92	3.548
13.14	4.648
13.36	1.798
13.58	5.96
13.8	0.054
14.02	5.088
14.24	2.089
14.46	0.09
14.68	3.96
14.9	5.028
15.12	4.991
15.34	2.05
15.56	4.089
15.78	3.009
16	4.952
16.22	3.855
16.44	1.822
16.66	1.736
16.88	2.762
17.1	3.757
17.32	4.758
17.54	11.809
17.76	5.7
17.98	0.388
18.2	1.529
18.42	1.504
18.64	0.489
18.86	6.629
19.08	4.62
19.3	5.522
19.52	2.468
19.74	0.595
19.96	3.408
20.18	3.375
20.4	0.4
20.62	4.381
20.84	1.464
21.06	1.377
21.28	1.301
21.5	1.267
21.72	2.422
21.94	0.641
22.16	1.392
22.38	5.456
22.6	2.538
22.82	1.384
23.04	1.285
23.26	0.953
23.48	3.934
23.7	4.767
23.92	1.679
24.14	63.522
24.36	11.463
24.58	26.346
24.8	0.349
25.02	3.27
25.24	0.442
25.46	9.749
25.68	4.004
25.9	2.259
26.12	2.545
26.34	3.447
26.56	2.367
26.78	4.276
27	3.079
27.22	0.197
27.44	5.611
27.66	4.315
27.88	6.021
28.1	31.778
28.32	223.773
28.54	28.643
28.76	5.674
28.98	2.703
29.2	2.741
29.42	3.715
29.64	6.571
29.86	2.425
30.08	6.253
30.3	7.015
30.52	0.564
30.74	4.183
30.96	4.018
31.18	10.963
31.4	31.923
31.62	166.062
31.84	13.138
32.06	3.652
32.28	1.896
32.5	4.077
32.72	0.332
32.94	0.406
33.16	2.441
33.38	1.368
33.6	3.133
33.82	4.912
34.04	14.749
34.26	77.582
34.48	26.084
34.7	13.005
34.92	2.979
35.14	7.032
35.36	32.447
35.58	7.918
35.8	3.218
36.02	8.641
36.24	3.06
36.46	7.36
36.68	1.283
36.9	5.989
37.12	4.31
37.34	0.58
37.56	2.353
37.78	3.124
38	0.87
38.22	0.825
38.44	4.689
38.66	18.528
38.88	3.391
39.1	5.451
39.32	6.199
39.54	3.067
39.76	3.977
39.98	1.908
40.2	2.169
40.42	2.749
40.64	4.69
40.86	25.791
41.08	2.783
41.3	22.027
41.52	11.033
41.74	5.193
41.96	1.35
42.18	10.512
42.4	1.66
42.62	5.835
42.84	2.07
43.06	5.202
43.28	4.219
43.5	2.2
43.72	1.765
43.94	5.606
44.16	3.514
44.38	4.391
44.6	0.266
44.82	10.15
45.04	18.084
45.26	6.972
45.48	4.059
45.7	15.966
45.92	5.142
46.14	2.283
46.36	0.366
46.58	5.856
46.8	3.043
47.02	0.679
47.24	4.579
47.46	3.64
47.68	1.67
47.9	2.173
48.12	0.269
48.34	7.115
48.56	0.52
48.78	4.394
49	7.688
49.22	12.947
49.44	39.149
49.66	5.42
49.88	1.078
50.1	23.587
50.32	61.587
50.54	12.067
50.76	22.757
50.98	7.284
51.2	4.914
51.42	12.756
51.64	1.617
51.86	4.253
52.08	1.802
52.3	3.174
52.52	4.742
52.74	3.923
52.96	6.67
53.18	4.216
53.4	2.024
53.62	3.779
53.84	4.41
54.06	15.112
54.28	12.735
54.5	2.408
54.72	1.974
54.94	9.525
55.16	1.658
55.38	36.33
55.6	36.76
55.82	24.848
56.04	6.75
56.26	1.611
56.48	1.471
56.7	3.544
56.92	7.578
57.14	9.639
57.36	19.735
57.58	3.868
57.8	1.033
58.02	5.056
58.24	5.362
58.46	3.584
58.68	2.8
58.9	5.931
59.12	0.077
59.34	3.386
59.56	3.844
59.78	20.859
60	27.755
60.22	16.459
60.44	8.037
60.66	3.579
60.88	1.284
61.1	0.978
61.32	14.858
61.54	12.682
61.76	6.328
61.98	7.857
62.2	16.756
62.42	3.931
62.64	3.419
62.86	26.767
63.08	22.034
63.3	6.289
63.52	0.81
63.74	3.964
63.96	1.186
64.18	7.321
64.4	14.443
64.62	8.561
64.84	1.462
65.06	5.03
65.28	9.022
65.5	8.163
65.72	22.364
65.94	23.363
66.16	5.427
66.38	0.684
66.6	0.937
66.82	2.296
67.04	5.537
67.26	0.285
67.48	1.94
67.7	3.986
67.92	1.038
68.14	5.848
68.36	0.238
68.58	2.706
68.8	7.533
69.02	14.449
69.24	5.311
69.46	6.481
69.68	2.61
69.9	2.493
70.12	4.422
70.34	7.378
70.56	3.33
70.78	2.248
71	3.145
71.22	7.198
71.44	10.066
71.66	9.915
71.88	1.588
72.1	8.609
72.32	5.677
72.54	0.306
72.76	0.728
72.98	0.944
73.2	4.052
73.42	1.417
73.64	7.339
73.86	2.392
74.08	1.46
74.3	7.358
74.52	3.244
74.74	14.263
74.96	8.462
75.18	13.422
75.4	8.108
75.62	4.14
75.84	3.915
76.06	1.066
76.28	3.883
76.5	8.826
76.72	4.805
76.94	7.739
77.16	1.711
77.38	3.679
77.6	6.711
77.82	2.776
78.04	1.781
78.26	2.791
78.48	1.031
78.7	3.236
78.92	9.53
79.14	11.637
79.36	4.728
79.58	2.992
79.8	6.017
80.02	2.184
80.24	3.171
80.46	5.257
80.68	6.112
80.9	0.891
81.12	0.322
81.34	3.408
81.56	6.076
81.78	3.717
82	4.133
82.22	1.638
82.44	4.214
82.66	5.91
82.88	5.476
83.1	11.267
83.32	13.103
83.54	7.908
83.76	5.916
83.98	6.104
84.2	8.542
84.42	3.079
84.64	3.703
84.86	2.023
85.08	0.321
85.3	2.639
85.52	2.955
85.74	2.171
85.96	2.294
86.18	7.391
86.4	2.501
86.62	6.215
86.84	1.019
87.06	4.551
87.28	1.46
87.5	18.378
87.72	4.268
87.94	7.215
88.16	9.265
88.38	6.22
88.6	9.464
88.82	2.976
89.04	2.898
89.26	1.021
89.48	4.225
89.7	5.818
89.92	2.117
