Measurement: Powder, Xray Data XY Processed
Mineral: Bahianite
Rruff sample: R050627
Ideal chemistry: Al_5_Sb^5+^_3_O_14_(OH)_2_
Locality: Paramirim Region, Bahia, Brazil
Source: Gemological Center
Description: Brown water worn pebble
Diffraction sample description: Powder
Measured chemistry: Al_5.00_Sb^5+^_3.00_O_14_(OH)_2_
Cell parameters: a: 9.3914(7) b: 11.514(2) c: 4.4068(4) alpha: 90 beta: 90.927(8) gamma: 90 volume: 476.46(5) crystal system: monoclinic
x	intensity
5	0
5.22	4.80915
5.44	9.26397
5.66	7.70079
5.88	3.39867
6.1	2.98943
6.32	10.4255
6.54	0.100387
6.76	7.22177
6.98	10.3707
7.2	6.51348
7.42	7.70513
7.64	7.78931
7.86	3.33264
8.08	16.7698
8.3	8.59403
8.52	8.62063
8.74	3.75942
8.96	2.7871
9.18	5.60615
9.4	0.610771
9.62	8.68944
9.84	3.53062
10.06	7.75719
10.28	4.73088
10.5	4.64183
10.72	0.649217
10.94	3.54209
11.16	9.23679
11.38	3.92565
11.6	9.81723
11.82	6.761
12.04	6.72689
12.26	15.5442
12.48	6.87836
12.7	6.79366
12.92	3.70763
13.14	0.885029
13.36	0.010752
13.58	3.901
13.8	1.13806
14.02	4.11444
14.24	0.905546
14.46	4.9836
14.68	7.89602
14.9	8.48918
15.12	12.6097
15.34	31.7923
15.56	19.7721
15.78	9.82046
16	4.81387
16.22	3.83046
16.44	7.14605
16.66	1.29085
16.88	3.55523
17.1	2.70249
17.32	3.74218
17.54	1.37279
17.76	0.047412
17.98	2.55206
18.2	8.39457
18.42	7.10647
18.64	16.022
18.86	220.5
19.08	46.0645
19.3	7.7447
19.52	4.7887
19.74	2.40482
19.96	45.7897
20.18	66.8315
20.4	2.99104
20.62	1.10333
20.84	10.4741
21.06	1.26335
21.28	13.1567
21.5	4.81432
21.72	7.8271
21.94	6.71598
22.16	0.28337
22.38	10.4039
22.6	15.239
22.82	9.06892
23.04	1.1438
23.26	18.4276
23.48	66.0215
23.7	25.4368
23.92	6.6804
24.14	1.5914
24.36	1.09512
24.58	16.0193
24.8	35.9916
25.02	27.1661
25.24	16.2103
25.46	109.753
25.68	9.7779
25.9	3.03481
26.12	2.99017
26.34	0.829648
26.56	12.6863
26.78	14.6041
27	5.35765
27.22	6.9241
27.44	175.328
27.66	20.9829
27.88	59.1379
28.1	53.3736
28.32	2.59236
28.54	10.011
28.76	2.83446
28.98	3.31019
29.2	3.06174
29.42	7.53522
29.64	9.32255
29.86	0.738711
30.08	1.49616
30.3	1.63071
30.52	2.13094
30.74	0.654774
30.96	16.222
31.18	15.4684
31.4	11.9923
31.62	39.7465
31.84	22.2477
32.06	30.8268
32.28	70.8994
32.5	42.5118
32.72	7.86598
32.94	10.4375
33.16	1.18633
33.38	6.75452
33.6	12.299
33.82	9.36867
34.04	8.43997
34.26	1.98737
34.48	6.08952
34.7	1.03072
34.92	6.78728
35.14	8.59948
35.36	2.92129
35.58	6.02996
35.8	24.3366
36.02	5.64956
36.24	11.5299
36.46	20.7182
36.68	73.0533
36.9	20.3962
37.12	37.44
37.34	74.2068
37.56	17.267
37.78	7.11575
38	3.11287
38.22	15.8548
38.44	26.4733
38.66	9.40925
38.88	1.37795
39.1	3.94077
39.32	2.87579
39.54	3.04036
39.76	8.14547
39.98	0.930302
40.2	0.148055
40.42	3.11242
40.64	9.70663
40.86	6.23396
41.08	9.30983
41.3	0.373878
41.52	1.97888
41.74	0.431668
41.96	82.5299
42.18	27.6466
42.4	33.9467
42.62	7.6867
42.84	16.8941
43.06	9.16202
43.28	3.71267
43.5	3.29169
43.72	1.00656
43.94	46.2299
44.16	24.6392
44.38	12.5786
44.6	6.42733
44.82	1.10632
45.04	13.0784
45.26	6.04998
45.48	10.989
45.7	19.7556
45.92	12.3603
46.14	3.88418
46.36	19.9159
46.58	9.78725
46.8	6.06051
47.02	7.25586
47.24	1.46663
47.46	1.51725
47.68	8.68087
47.9	10.3434
48.12	4.47026
48.34	9.70231
48.56	12.7702
48.78	8.39006
49	3.49721
49.22	6.37176
49.44	2.40638
49.66	1.6308
49.88	6.67162
50.1	13.705
50.32	8.18085
50.54	3.16616
50.76	9.15855
50.98	2.96053
51.2	1.17764
51.42	4.83575
51.64	2.90458
51.86	6.12165
52.08	3.36622
52.3	18.5693
52.52	8.7882
52.74	7.8221
52.96	1.06911
53.18	4.72459
53.4	1.61979
53.62	8.88332
53.84	3.27958
54.06	2.6486
54.28	28.1911
54.5	12.0914
54.72	22.7575
54.94	26.9965
55.16	11.1233
55.38	3.46667
55.6	4.12236
55.82	58.9152
56.04	25.997
56.26	32.838
56.48	43.7659
56.7	35.6638
56.92	30.0686
57.14	11.5629
57.36	5.08329
57.58	0.6248
57.8	45.0046
58.02	7.45913
58.24	11.93
58.46	3.43809
58.68	4.48998
58.9	17.6609
59.12	14.3791
59.34	8.84362
59.56	14.207
59.78	3.50357
60	7.73825
60.22	5.03355
60.44	0.425597
60.66	4.63938
60.88	11.6065
61.1	5.78282
61.32	6.33782
61.54	4.97988
61.76	9.79783
61.98	0.8411
62.2	2.6936
62.42	14.4241
62.64	15.4287
62.86	4.09995
63.08	5.77219
63.3	8.26543
63.52	7.76947
63.74	5.56511
63.96	13.3251
64.18	6.28386
64.4	4.2328
64.62	7.14544
64.84	5.32101
65.06	2.9664
65.28	0.222007
65.5	0.075175
65.72	8.99803
65.94	2.65616
66.16	19.6621
66.38	19.884
66.6	3.59632
66.82	4.09558
67.04	9.815
67.26	3.36243
67.48	4.16768
67.7	1.011
67.92	18.6871
68.14	33.57
68.36	23.9905
68.58	16.9941
68.8	13.3483
69.02	15.1073
69.24	17.219
69.46	5.02369
69.68	2.64253
69.9	4.35755
70.12	0.063231
70.34	1.72425
70.56	2.90091
70.78	2.7272
71	7.65349
71.22	2.39044
71.44	2.51175
71.66	11.839
71.88	26.5456
72.1	29.4518
72.32	19.3907
72.54	12.9956
72.76	8.90621
72.98	1.54842
73.2	1.08461
73.42	5.33518
73.64	8.50703
73.86	4.71685
74.08	2.08683
74.3	2.06139
74.52	3.0569
74.74	6.91388
74.96	10.0017
75.18	17.0999
75.4	12.0002
75.62	9.01729
75.84	8.35938
76.06	9.45819
76.28	3.50617
76.5	0.363563
76.72	1.36088
76.94	7.62219
77.16	7.67014
77.38	8.54286
77.6	2.31578
77.82	1.02563
78.04	0.489245
78.26	2.15322
78.48	2.05539
78.7	3.45538
78.92	8.38475
79.14	8.5839
79.36	5.70834
79.58	1.77703
79.8	4.97202
80.02	3.03143
80.24	3.43587
80.46	8.63027
80.68	1.72981
80.9	6.78222
81.12	1.37471
81.34	2.61373
81.56	5.54104
81.78	3.3956
82	10.5247
82.22	5.43327
82.44	2.38776
82.66	1.91014
82.88	3.97146
83.1	3.06557
83.32	4.16087
83.54	1.42357
83.76	8.5255
83.98	1.36214
84.2	6.4909
84.42	0.409506
84.64	4.54997
84.86	0.704031
85.08	1.90299
85.3	11.2351
85.52	6.66582
85.74	7.59827
85.96	1.44826
86.18	1.30107
86.4	6.29971
86.62	3.26389
86.84	5.17572
87.06	7.17269
87.28	5.05466
87.5	0.229372
87.72	5.57847
87.94	0.393459
88.16	7.30157
88.38	4.45689
88.6	4.59732
88.82	7.80738
89.04	3.91977
89.26	7.25002
89.48	1.52535
89.7	4.17536
89.92	2.60799
