Measurement: Powder, Xray Data XY Processed
Mineral: Bakerite
Rruff sample: R050423
Ideal chemistry: Ca_4_B_5_(SiO_4_)_3_(O_3_(OH)_5_)
Locality: Corkscrew Canyon, Death Valley, California, USA
Source: Marcus Origlieri
Description: White fine-grained aggregate
Diffraction sample description: Powder
Measured chemistry: Ca_4.00_(B_4.99_S_0.01_)_Σ=5_(Si_2.97_Al_0.03_)_Σ=3_O_15_(OH)_5_
Cell parameters: a: 4.790(2) b: 7.5700(4) c: 9.5391(8) alpha: 90. beta: 90.44(1) gamma: 90. volume: 345.9(1) crystal system: monoclinic
x	intensity
5	0
5.22	23.2808
5.44	16.6144
5.66	12.4273
5.88	8.53251
6.1	18.9506
6.32	10.2906
6.54	8.78623
6.76	15.0315
6.98	8.19424
7.2	5.84399
7.42	7.62186
7.64	11.2158
7.86	0.017098
8.08	3.6216
8.3	6.26794
8.52	0.649324
8.74	12.2098
8.96	8.58813
9.18	3.8388
9.4	8.73956
9.62	2.01245
9.84	3.10238
10.06	7.29086
10.28	4.49756
10.5	3.62235
10.72	8.7595
10.94	8.89701
11.16	0.135077
11.38	5.01046
11.6	3.09191
11.82	6.12252
12.04	7.12872
12.26	7.18253
12.48	1.33002
12.7	8.32973
12.92	6.48075
13.14	0.377801
13.36	4.3531
13.58	1.65391
13.8	12.411
14.02	7.41426
14.24	5.42154
14.46	8.55777
14.68	3.71237
14.9	11.6137
15.12	10.7933
15.34	3.94793
15.56	10.1812
15.78	7.56355
16	3.52509
16.22	3.80257
16.44	0.966471
16.66	6.2831
16.88	8.62647
17.1	4.72891
17.32	9.82673
17.54	6.74848
17.76	5.66268
17.98	11.7502
18.2	4.57707
18.42	1.51623
18.64	16.5615
18.86	7.55091
19.08	3.28896
19.3	6.25104
19.52	4.3084
19.74	1.52101
19.96	2.5036
20.18	6.69751
20.4	2.64192
20.62	5.765
20.84	3.80351
21.06	10.6954
21.28	2.85061
21.5	3.77531
21.72	2.87867
21.94	0.080845
22.16	4.7566
22.38	9.63107
22.6	7.3201
22.82	2.10857
23.04	0.116497
23.26	3.84314
23.48	0.54461
23.7	8.46597
23.92	84.3173
24.14	8.29927
24.36	4.25278
24.58	1.12732
24.8	2.27468
25.02	2.31442
25.24	1.17441
25.46	2.04374
25.68	15.6654
25.9	2.47617
26.12	5.32172
26.34	22.0606
26.56	61.5435
26.78	3.34969
27	21.5037
27.22	14.4128
27.44	11.4651
27.66	24.371
27.88	3.31229
28.1	2.17638
28.32	8.25808
28.54	1.85823
28.76	33.1884
28.98	83.0513
29.2	30.6289
29.42	11.587
29.64	2.20732
29.86	4.81646
30.08	61.9298
30.3	17.9002
30.52	1.94209
30.74	10.857
30.96	7.04108
31.18	4.15677
31.4	9.47765
31.62	138
31.84	3.20066
32.06	0.692578
32.28	8.35628
32.5	10.9572
32.72	2.61508
32.94	0.749231
33.16	5.45244
33.38	2.75773
33.6	1.88283
33.82	3.23829
34.04	5.01676
34.26	8.76568
34.48	4.50591
34.7	7.06258
34.92	2.69614
35.14	4.29715
35.36	8.10544
35.58	7.15008
35.8	47.0729
36.02	51.0577
36.24	17.8245
36.46	3.91846
36.68	5.04258
36.9	3.22084
37.12	7.58955
37.34	4.20243
37.56	4.39969
37.78	6.33771
38	6.47913
38.22	1.5303
38.44	4.49791
38.66	7.3175
38.88	3.32475
39.1	1.09133
39.32	0.259109
39.54	11.9377
39.76	16.5923
39.98	3.79868
40.2	13.2795
40.42	81.7628
40.64	38.3387
40.86	1.10777
41.08	0.006856
41.3	4.67116
41.52	65.6342
41.74	47.2648
41.96	17.4658
42.18	21.6111
42.4	22.4638
42.62	18.9762
42.84	6.24531
43.06	0.471145
43.28	3.76065
43.5	1.07933
43.72	1.96352
43.94	16.1349
44.16	8.12738
44.38	7.08765
44.6	6.71799
44.82	13.4682
45.04	7.348
45.26	2.37662
45.48	4.69174
45.7	11.8205
45.92	51.9844
46.14	11.1231
46.36	1.00425
46.58	5.76828
46.8	3.04467
47.02	2.98324
47.24	3.13293
47.46	4.13544
47.68	4.73001
47.9	2.51033
48.12	30.1484
48.34	5.88091
48.56	5.73558
48.78	4.65083
49	22.5851
49.22	17.6742
49.44	17.8467
49.66	1.29418
49.88	1.72385
50.1	7.3864
50.32	8.81026
50.54	0.886349
50.76	14.2534
50.98	8.3513
51.2	5.44125
51.42	2.56682
51.64	3.33358
51.86	15.2782
52.08	25.4431
52.3	6.87532
52.52	3.43264
52.74	8.27326
52.96	18.2643
53.18	6.45772
53.4	4.61597
53.62	9.96593
53.84	19.3759
54.06	35.7231
54.28	5.93589
54.5	4.79369
54.72	1.6199
54.94	2.28701
55.16	2.88093
55.38	3.87356
55.6	6.55345
55.82	13.519
56.04	13.1666
56.26	30.7013
56.48	28.3529
56.7	14.1108
56.92	6.07523
57.14	2.28068
57.36	6.5158
57.58	11.7859
57.8	8.03716
58.02	7.43726
58.24	8.09296
58.46	3.39817
58.68	6.55352
58.9	4.76539
59.12	0.989784
59.34	6.36646
59.56	2.44762
59.78	9.32121
60	6.33602
60.22	9.31948
60.44	0.1659
60.66	5.62432
60.88	4.55963
61.1	2.56044
61.32	7.44068
61.54	16.3727
61.76	2.0065
61.98	3.94717
62.2	1.00894
62.42	0.099593
62.64	1.08008
62.86	2.90225
63.08	6.74941
63.3	2.737
63.52	4.74322
63.74	6.11674
63.96	11.2116
64.18	5.21141
64.4	0.428033
64.62	3.40979
64.84	7.52107
65.06	0.550406
65.28	8.61383
65.5	1.3109
65.72	6.56049
65.94	2.55503
66.16	5.35942
66.38	4.61855
66.6	1.90538
66.82	1.94004
67.04	5.09729
67.26	0.437165
67.48	0.704564
67.7	1.0357
67.92	1.21468
68.14	4.33681
68.36	4.42852
68.58	4.41366
68.8	5.12791
69.02	0.264844
69.24	2.26554
69.46	3.0301
69.68	6.96063
69.9	7.7429
70.12	2.92821
70.34	4.78577
70.56	3.66358
70.78	3.54806
71	4.44833
71.22	1.64504
71.44	3.26123
71.66	10.1176
71.88	12.0537
72.1	5.00664
72.32	5.92586
72.54	3.86847
72.76	4.97614
72.98	9.042
73.2	7.14568
73.42	12.345
73.64	3.77959
73.86	4.74416
74.08	2.84137
74.3	1.82946
74.52	1.01606
74.74	2.80032
74.96	6.71125
75.18	4.48824
75.4	3.36303
75.62	8.24794
75.84	7.03507
76.06	3.62115
76.28	4.41953
76.5	2.4132
76.72	2.73163
76.94	6.75701
77.16	6.77943
77.38	7.80438
77.6	2.88219
77.82	0.993767
78.04	4.02858
78.26	9.11705
78.48	12.4742
78.7	8.70302
78.92	7.64835
79.14	1.1783
79.36	7.14085
79.58	2.1146
79.8	2.947
80.02	0.729091
80.24	3.51336
80.46	7.56511
80.68	1.19459
80.9	8.89096
81.12	5.52163
81.34	5.41907
81.56	5.49216
81.78	7.32207
82	7.36703
82.22	5.69345
82.44	5.99869
82.66	2.63726
82.88	4.85069
83.1	2.05871
83.32	2.33193
83.54	1.77393
83.76	9.0391
83.98	4.10108
84.2	7.23628
84.42	3.28454
84.64	6.11607
84.86	7.982
85.08	4.78618
85.3	4.61634
85.52	7.52372
85.74	5.38555
85.96	9.28119
86.18	7.19531
86.4	5.17735
86.62	3.22075
86.84	0.291612
87.06	6.39323
87.28	3.54748
87.5	6.503
87.72	3.86294
87.94	6.12276
88.16	7.30628
88.38	4.61172
88.6	2.95649
88.82	2.931
89.04	1.19871
89.26	6.55609
89.48	3.28896
89.7	4.22342
89.92	3.27658
