Measurement: Powder, Xray Data XY Processed
Mineral: Bannisterite
Rruff sample: R060817
Ideal chemistry: (Ca,K,Na)(Mn^2+^,Fe^2+^)_10_(Si,Al)_16_O_38_(OH)_8_nH_2_O
Locality: Broken Hill, New South Wales, Australia
Source: Bob Jenkins
Description: Dark brown fragment with prominent cleavage
Diffraction sample description: Powder
Measured chemistry: (K_0.65_Ca_0.32_Na_0.03_)_Σ=1_(Mn^2+^_5.37_Fe^2+^_4.48_Mg_0.15_)_Σ=10_(Si_14.68_Al_1.32_)_Σ=16_O_38_(OH)_8_·8.77H_2_O
Cell parameters: a: 22.290(3) b: 16.389(3) c: 24.598(3) alpha: 90 beta: 94.35(2) gamma: 90 volume: 8960(1) crystal system: monoclinic
x	intensity
5	0
5.22	25.1058
5.44	8.75633
5.66	14.221
5.88	13.7328
6.1	14.795
6.32	7.60883
6.54	67.2655
6.76	7.58565
6.98	109.594
7.2	3029.31
7.42	93.7251
7.64	32.1822
7.86	10.9496
8.08	23.989
8.3	14.8643
8.52	14.8482
8.74	0.024872
8.96	1.85353
9.18	12.4203
9.4	39.4014
9.62	1.70136
9.84	6.36323
10.06	8.53548
10.28	0.102814
10.5	20.1658
10.72	13.9718
10.94	21.3183
11.16	3.44213
11.38	17.862
11.6	16.8703
11.82	7.59776
12.04	0.565819
12.26	0.826191
12.48	14.597
12.7	12.1703
12.92	4.74938
13.14	7.94866
13.36	10.9148
13.58	14.8584
13.8	1.04938
14.02	4.57647
14.24	5.06647
14.46	64.0329
14.68	1.18199
14.9	25.7377
15.12	2.7615
15.34	6.41784
15.56	3.53223
15.78	28.0999
16	31.6651
16.22	5.09979
16.44	2.74053
16.66	20.4104
16.88	27.4065
17.1	29.4889
17.32	9.0034
17.54	10.503
17.76	17.2155
17.98	14.2656
18.2	11.6644
18.42	10.1607
18.64	2.719
18.86	18.4045
19.08	4.25748
19.3	35.3349
19.52	20.1299
19.74	6.44302
19.96	16.3695
20.18	19.4635
20.4	9.88937
20.62	11.6175
20.84	17.6339
21.06	24.3213
21.28	24.9528
21.5	1.2686
21.72	114.941
21.94	20.195
22.16	11.2391
22.38	0.425415
22.6	12.6634
22.82	34.1382
23.04	17.6061
23.26	25.3024
23.48	38.6408
23.7	3.94939
23.92	26.0554
24.14	16.2836
24.36	5.95908
24.58	17.462
24.8	24.0876
25.02	5.6656
25.24	32.2683
25.46	22.5507
25.68	11.7294
25.9	13.651
26.12	57.1032
26.34	27.2236
26.56	22.1567
26.78	13.704
27	7.08783
27.22	6.79269
27.44	1.38487
27.66	19.5789
27.88	14.9476
28.1	12.8353
28.32	26.346
28.54	19.5458
28.76	15.2144
28.98	22.2293
29.2	164.61
29.42	18.2351
29.64	18.8622
29.86	17.6931
30.08	2.93082
30.3	31.5538
30.52	16.5565
30.74	12.3659
30.96	20.7126
31.18	11.6205
31.4	13.3475
31.62	14.6155
31.84	18.8871
32.06	33.8731
32.28	3.79832
32.5	65.6605
32.72	2.14373
32.94	19.0509
33.16	27.232
33.38	24.4532
33.6	3.36166
33.82	21.9903
34.04	55.2893
34.26	7.23772
34.48	46.719
34.7	16.1082
34.92	4.35244
35.14	7.37016
35.36	19.5527
35.58	6.5885
35.8	15.5711
36.02	9.63435
36.24	16.4852
36.46	13.5743
36.68	1.0338
36.9	14.8051
37.12	14.6271
37.34	47.4024
37.56	10.0002
37.78	35.2296
38	17.62
38.22	8.74337
38.44	22.0431
38.66	19.1468
38.88	9.05883
39.1	1.06596
39.32	2.86723
39.54	14.2746
39.76	9.13051
39.98	9.63518
40.2	12.7088
40.42	15.606
40.64	11.7879
40.86	9.27747
41.08	21.4726
41.3	27.5984
41.52	11.9273
41.74	17.0767
41.96	11.6202
42.18	30.3272
42.4	5.83184
42.62	11.2627
42.84	6.32594
43.06	6.48283
43.28	23.1028
43.5	26.886
43.72	14.9685
43.94	9.62972
44.16	21.9588
44.38	1.22652
44.6	20.9166
44.82	13.5746
45.04	13.1637
45.26	11.354
45.48	7.34064
45.7	4.63113
45.92	19.1882
46.14	0.289963
46.36	24.9703
46.58	10.2009
46.8	5.89768
47.02	15.5033
47.24	11.5011
47.46	16.6417
47.68	25.5032
47.9	12.1395
48.12	10.0311
48.34	13.8344
48.56	2.59463
48.78	20.9524
49	6.06671
49.22	10.8174
49.44	9.73618
49.66	27.1221
49.88	3.88218
50.1	5.29993
50.32	8.92611
50.54	8.61826
50.76	12.9828
50.98	17.4988
51.2	20.0454
51.42	17.3214
51.64	11.6989
51.86	40.7809
52.08	18.5502
52.3	22.6767
52.52	19.5958
52.74	12.413
52.96	17.5551
53.18	23.5473
53.4	1.57246
53.62	5.52781
53.84	13.1569
54.06	10.3546
54.28	0.169071
54.5	19.1168
54.72	26.3287
54.94	22.2666
55.16	1.22326
55.38	10.9545
55.6	0.074455
55.82	19.1105
56.04	9.84345
56.26	10.4624
56.48	11.2308
56.7	10.0043
56.92	12.2721
57.14	10.3879
57.36	31.9901
57.58	14.5329
57.8	4.06393
58.02	21.5785
58.24	23.2874
58.46	27.9009
58.68	8.98046
58.9	4.24369
59.12	17.4509
59.34	36.1565
59.56	21.0904
59.78	0.986382
60	32.9061
60.22	19.8529
60.44	3.68189
60.66	21.0099
60.88	7.80843
61.1	17.3794
61.32	29.8592
61.54	15.982
61.76	15.0622
61.98	3.22722
62.2	15.3225
62.42	15.5333
62.64	21.7136
62.86	0.952534
63.08	0.597458
63.3	21.409
63.52	22.4083
63.74	18.0699
63.96	17.7123
64.18	1.72546
64.4	29.2065
64.62	16.9325
64.84	20.0929
65.06	35.0366
65.28	13.1287
65.5	15.139
65.72	2.93799
65.94	8.12303
66.16	0.232582
66.38	13.2751
66.6	14.6596
66.82	12.933
67.04	20.531
67.26	20.3535
67.48	17.534
67.7	20.6471
67.92	11.2121
68.14	15.3693
68.36	11.7041
68.58	12.1981
68.8	3.59249
69.02	5.00371
69.24	15.2976
69.46	43.1365
69.68	17.2435
69.9	15.6049
70.12	9.23487
70.34	20.5924
70.56	10.5501
70.78	8.82601
71	29.9817
71.22	29.8387
71.44	10.0303
71.66	24.5605
71.88	15.3649
72.1	3.15361
72.32	16.7662
72.54	6.83429
72.76	7.11722
72.98	1.57525
73.2	2.45049
73.42	10.6317
73.64	22.9586
73.86	15.4587
74.08	11.584
74.3	12.8576
74.52	9.04393
74.74	10.5606
74.96	9.86886
75.18	10.1985
75.4	1.6348
75.62	9.94165
75.84	28.2303
76.06	14.3772
76.28	16.7251
76.5	12.6929
76.72	12.4892
76.94	10.761
77.16	14.4908
77.38	13.3587
77.6	15.9877
77.82	15.4736
78.04	21.7389
78.26	9.51517
78.48	24.3955
78.7	12.7559
78.92	33.4168
79.14	13.4916
79.36	15.9843
79.58	15.6503
79.8	6.87407
80.02	10.6722
80.24	16.8815
80.46	14.6739
80.68	28.6173
80.9	12.7864
81.12	3.23926
81.34	9.7568
81.56	0.56464
81.78	16.776
82	16.2594
82.22	17.7551
82.44	12.0579
82.66	13.2191
82.88	9.17667
83.1	16.008
83.32	11.0472
83.54	9.83579
83.76	4.76225
83.98	21.2513
84.2	1.90083
84.42	20.0109
84.64	14.4595
84.86	22.5003
85.08	8.83915
85.3	16.7803
85.52	11.6758
85.74	14.6205
85.96	13.3054
86.18	27.7157
86.4	11.7814
86.62	5.73263
86.84	16.953
87.06	4.0914
87.28	23.3443
87.5	16.6936
87.72	10.954
87.94	5.45581
88.16	13.75
88.38	24.2036
88.6	5.58689
88.82	13.0487
89.04	3.6161
89.26	16.2267
89.48	5.52048
89.7	4.7986
89.92	0.970558
