Measurement: Powder, Xray Data XY Processed
Mineral: Baotite
Rruff sample: R060251
Ideal chemistry: Ba_4_(Ti^4+^,Nb^5+^,W^6+^)_8_O_16_(SiO_3_)_4_Cl
Locality: Baiyun-Obo mine, Inner Mongolia, China
Source: William W. Pinch
Description: Brownish-purple colored cleavage fragments associated with clear brewsterite and blue richterite
Diffraction sample description: Single crystal, powder profile is calculated
Cell parameters: a: 19.998(2) b: 19.998(2) c: 5.8982(6) alpha: 90 beta: 90 gamma: 90 volume: 2358.7(7) crystal system: tetragonal
x	intensity
5	0
5.22	0
5.44	0
5.66	0
5.88	0
6.1	0
6.32	0
6.54	0
6.76	0
6.98	0
7.2	0
7.42	0
7.64	0
7.86	0
8.08	0
8.3	0
8.52	0
8.74	0.013
8.96	0.003
9.18	0
9.4	0
9.62	0
9.84	0
10.06	0
10.28	0
10.5	0
10.72	0
10.94	0
11.16	0
11.38	0
11.6	0
11.82	0
12.04	0
12.26	0
12.48	0.027
12.7	0
12.92	0
13.14	0
13.36	0
13.58	0
13.8	0
14.02	0
14.24	0
14.46	0
14.68	0
14.9	0
15.12	0
15.34	0
15.56	0.245
15.78	0.137
16	0
16.22	0
16.44	0
16.66	0
16.88	0
17.1	0
17.32	0
17.54	0
17.76	13.203
17.98	0.219
18.2	0
18.42	0
18.64	0
18.86	0
19.08	0
19.3	0
19.52	0
19.74	0.004
19.96	0.029
20.18	0.001
20.4	0
20.62	0
20.84	0
21.06	0
21.28	0
21.5	0
21.72	0
21.94	31.937
22.16	0.003
22.38	0
22.6	0
22.82	0
23.04	0
23.26	0
23.48	0
23.7	12.986
23.92	0.001
24.14	0
24.36	0
24.58	0
24.8	0
25.02	0
25.24	52.075
25.46	0
25.68	0
25.9	0
26.12	0
26.34	0
26.56	0
26.78	4.674
27	30.501
27.22	0
27.44	0
27.66	0
27.88	0
28.1	0.42
28.32	21.64
28.54	0.281
28.76	0
28.98	0
29.2	0
29.42	0
29.64	0
29.86	0
30.08	0
30.3	0
30.52	0
30.74	0
30.96	40.529
31.18	47.48
31.4	0
31.62	0.116
31.84	0
32.06	0
32.28	36.783
32.5	0.649
32.72	0
32.94	0
33.16	0
33.38	0.026
33.6	21.937
33.82	0.173
34.04	0
34.26	0
34.48	0
34.7	0
34.92	7.594
35.14	0
35.36	0.002
35.58	0
35.8	1.038
36.02	34.703
36.24	0.028
36.46	0.109
36.68	0
36.9	0
37.12	0.634
37.34	0
37.56	0
37.78	0
38	0
38.22	7.125
38.44	0.299
38.66	0
38.88	0
39.1	0
39.32	3.329
39.54	1.041
39.76	0.042
39.98	0
40.2	0.563
40.42	35.645
40.64	0
40.86	0.002
41.08	0
41.3	0
41.52	0.431
41.74	0
41.96	0.052
42.18	0
42.4	0
42.62	0
42.84	0
43.06	0
43.28	0
43.5	2.32
43.72	0.002
43.94	0
44.16	0
44.38	15.018
44.6	6.698
44.82	0.08
45.04	0.001
45.26	4.26
45.48	10.59
45.7	0
45.92	0
46.14	0.045
46.36	15.593
46.58	0.047
46.8	0
47.02	0
47.24	1.615
47.46	5.01
47.68	0.001
47.9	0
48.12	0.044
48.34	3.367
48.56	0.074
48.78	0.002
49	3.686
49.22	3.087
49.44	0.002
49.66	0
49.88	13.826
50.1	4.267
50.32	0
50.54	0
50.76	0
50.98	0.323
51.2	0
51.42	0
51.64	28.664
51.86	8.7
52.08	0
52.3	0
52.52	0.037
52.74	2.975
52.96	0
53.18	0
53.4	22.479
53.62	3.909
53.84	0
54.06	0
54.28	5.744
54.5	5.032
54.72	0
54.94	0.067
55.16	5.511
55.38	0.017
55.6	0.001
55.82	1.357
56.04	5.573
56.26	0.031
56.48	0.015
56.7	7.548
56.92	1.748
57.14	0
57.36	0
57.58	4.965
57.8	2.512
58.02	0
58.24	0.347
58.46	3.876
58.68	0.044
58.9	0.009
59.12	7.513
59.34	2.41
59.56	0
59.78	0.007
60	7.463
60.22	0.974
60.44	0
60.66	0
60.88	0
61.1	0.041
61.32	0.006
61.54	0.913
61.76	0.04
61.98	0
62.2	3.628
62.42	2.969
62.64	0.003
62.86	0.029
63.08	3.423
63.3	0.846
63.52	0.011
63.74	0.063
63.96	0.45
64.18	0.002
64.4	0.014
64.62	7.938
64.84	1.472
65.06	0.023
65.28	2.066
65.5	2.626
65.72	0
65.94	0.218
66.16	1.674
66.38	0.092
66.6	0.001
66.82	3.307
67.04	2.098
67.26	0.004
67.48	0.544
67.7	0.285
67.92	0.003
68.14	0.167
68.36	0.96
68.58	0.093
68.8	0.004
69.02	8.734
69.24	3.956
69.46	0.014
69.68	1.08
69.9	0.56
70.12	0
70.34	8.664
70.56	9.322
70.78	0.048
71	0.003
71.22	2.925
71.44	1.24
71.66	0
71.88	1.803
72.1	1.207
72.32	0.008
72.54	5.888
72.76	3.25
72.98	0.03
73.2	1.047
73.42	0.984
73.64	0.092
73.86	0.011
74.08	2.806
74.3	1.34
74.52	0.004
74.74	3.541
74.96	1.649
75.18	0
75.4	0.55
75.62	0.273
75.84	0.002
76.06	3.242
76.28	1.582
76.5	0.038
76.72	0.4
76.94	0.36
77.16	0.138
77.38	0.159
77.6	0.085
77.82	0.098
78.04	0.027
78.26	1.201
78.48	0.525
78.7	0
78.92	3.346
79.14	1.572
79.36	0
79.58	0.232
79.8	0.047
80.02	0.003
80.24	1.333
80.46	0.461
80.68	0.012
80.9	2.369
81.12	0.619
81.34	0.099
81.56	1.598
81.78	1.773
82	1.806
82.22	0.122
82.44	0.644
82.66	0.582
82.88	0.018
83.1	1.286
83.32	1.019
83.54	0.002
83.76	2.564
83.98	1.018
84.2	0
84.42	0.432
84.64	0.075
84.86	0
85.08	1.161
85.3	0.072
85.52	0.025
85.74	0.509
85.96	0.033
86.18	0.04
86.4	0.176
86.62	0.046
86.84	0.329
87.06	4.425
87.28	0.324
87.5	0.019
87.72	0.268
87.94	1.104
88.16	2.824
88.38	0.127
88.6	2.315
88.82	2.893
89.04	0.303
89.26	0.415
89.48	0.909
89.7	0.052
89.92	5.286
