Measurement: Powder, Xray Data XY Processed
Mineral: Bario-olgite
Rruff sample: R060614
Ideal chemistry: Na(Na,Sr,Ce)_2_Ba(PO_4_)_2_
Locality: Palitra pegmatite, Kedykverpakhk Mountain, Lovozero massif, Kola Peninsula, Russia
Source: Michael Scott
Description: Grayish-green grains associated with brown manaksite R060693, and purple ussingite
Diffraction sample description: Single crystal, powder profile is calculated
Cell parameters: a: 5.552(1) b: 5.552(1) c: 7.012(2) alpha: 90 beta: 90 gamma: 120 volume: 187.70(5) crystal system: hexagonal
x	intensity
5	0
5.22	0
5.44	0
5.66	0
5.88	0
6.1	0
6.32	0
6.54	0
6.76	0
6.98	0
7.2	0
7.42	0
7.64	0
7.86	0
8.08	0
8.3	0
8.52	0
8.74	0
8.96	0
9.18	0
9.4	0
9.62	0
9.84	0
10.06	0
10.28	0
10.5	0
10.72	0
10.94	0
11.16	0
11.38	0
11.6	0
11.82	0
12.04	0
12.26	0
12.48	0.001
12.7	0.293
12.92	0
13.14	0
13.36	0
13.58	0
13.8	0
14.02	0
14.24	0
14.46	0
14.68	0
14.9	0
15.12	0
15.34	0
15.56	0
15.78	0
16	0
16.22	0
16.44	0
16.66	0
16.88	0
17.1	0
17.32	0
17.54	0
17.76	0
17.98	0
18.2	0
18.42	1.658
18.64	0.001
18.86	0
19.08	0
19.3	0
19.52	0
19.74	0
19.96	0
20.18	0
20.4	0
20.62	0
20.84	0
21.06	0
21.28	0
21.5	0
21.72	0
21.94	0
22.16	0
22.38	17.623
22.6	0.005
22.82	0
23.04	0
23.26	0
23.48	0
23.7	0
23.92	0
24.14	0
24.36	0
24.58	0
24.8	0
25.02	0
25.24	0
25.46	0.055
25.68	0
25.9	0
26.12	0
26.34	0
26.56	0
26.78	0
27	0
27.22	0
27.44	0
27.66	0
27.88	0
28.1	0
28.32	0
28.54	0
28.76	0
28.98	0
29.2	0
29.42	0
29.64	0
29.86	0
30.08	0
30.3	0
30.52	0
30.74	0
30.96	0
31.18	0
31.4	0
31.62	44.591
31.84	0
32.06	0
32.28	99.055
32.5	0.004
32.72	0
32.94	0
33.16	0
33.38	0
33.6	0
33.82	0
34.04	0
34.26	0
34.48	0
34.7	0.347
34.92	1.787
35.14	0
35.36	0
35.58	0
35.8	0
36.02	0
36.24	0
36.46	0
36.68	0
36.9	0
37.12	0
37.34	0
37.56	0.03
37.78	0
38	0
38.22	0
38.44	12.813
38.66	0.004
38.88	0
39.1	0
39.32	0
39.54	0.009
39.76	10.478
39.98	0
40.2	0
40.42	0
40.64	0
40.86	0
41.08	0
41.3	0
41.52	3.888
41.74	0
41.96	0
42.18	0
42.4	0
42.62	0
42.84	0.002
43.06	1.774
43.28	0
43.5	0
43.72	0
43.94	0
44.16	0
44.38	0
44.6	0
44.82	0
45.04	0
45.26	0
45.48	0
45.7	3.769
45.92	13.067
46.14	0
46.36	0
46.58	0
46.8	0
47.02	0
47.24	0
47.46	0
47.68	0
47.9	0
48.12	0
48.34	0
48.56	0
48.78	0
49	0
49.22	0
49.44	0
49.66	0
49.88	0
50.1	0
50.32	0.548
50.54	0
50.76	0
50.98	1.437
51.2	5.325
51.42	0
51.64	0
51.86	0
52.08	4.42
52.3	0.032
52.52	0
52.74	0
52.96	0
53.18	0
53.4	0
53.62	0
53.84	0
54.06	0
54.28	0
54.5	0
54.72	0.028
54.94	0.011
55.16	0
55.38	0
55.6	0.01
55.82	1.156
56.04	0
56.26	0
56.48	0
56.7	0
56.92	0
57.14	14.264
57.36	0.438
57.58	11.223
57.8	1.033
58.02	0
58.24	0
58.46	0
58.68	0
58.9	0
59.12	0.098
59.34	0.486
59.56	0
59.78	0
60	0
60.22	0
60.44	0
60.66	0
60.88	0
61.1	0
61.32	0
61.54	0
61.76	0
61.98	0
62.2	0
62.42	0
62.64	1.879
62.86	0.138
63.08	0
63.3	0
63.52	0
63.74	0
63.96	0.236
64.18	0.012
64.4	0
64.62	0
64.84	0
65.06	0.561
65.28	0.037
65.5	0
65.72	0
65.94	2.024
66.16	0.163
66.38	0
66.6	0.02
66.82	0.002
67.04	0
67.26	0
67.48	0.407
67.7	1.073
67.92	0
68.14	0
68.36	0
68.58	0
68.8	0
69.02	0.129
69.24	0.098
69.46	0
69.68	0.753
69.9	0.71
70.12	0
70.34	0
70.56	0
70.78	0.038
71	0.009
71.22	0.001
71.44	0.489
71.66	0.107
71.88	0
72.1	0.119
72.32	0.12
72.54	0
72.76	0
72.98	0
73.2	0
73.42	0.002
73.64	0.001
73.86	0
74.08	0
74.3	0
74.52	0
74.74	0
74.96	0
75.18	0.086
75.4	0.115
75.62	0.035
75.84	0.15
76.06	0.068
76.28	0.001
76.5	5.352
76.72	2.785
76.94	0
77.16	0
77.38	0
77.6	0
77.82	0
78.04	0
78.26	0
78.48	0
78.7	0
78.92	1.15
79.14	0.444
79.36	0
79.58	0
79.8	0
80.02	0
80.24	0
80.46	1.016
80.68	0.218
80.9	0.001
81.12	0
81.34	1.02
81.56	0.668
81.78	0
82	0
82.22	0.002
82.44	0.041
82.66	0.081
82.88	0
83.1	0
83.32	0
83.54	0.192
83.76	0.185
83.98	0
84.2	0
84.42	0
84.64	0
84.86	0
85.08	0
85.3	0.211
85.52	0.813
85.74	1.057
85.96	0
86.18	0
86.4	0
86.62	0
86.84	0
87.06	0
87.28	0
87.5	0
87.72	0.003
87.94	0.244
88.16	0.611
88.38	0
88.6	0
88.82	0.002
89.04	0.001
89.26	0
89.48	0
89.7	0
89.92	0
