Measurement: Powder, Xray Data XY Processed
Mineral: Barrerite
Rruff sample: R050135
Ideal chemistry: Na_2_(Al_2_Si_7_)O_18_6H_2_O
Locality: Kuiu Island, Alaska, USA
Source: Ben Norton
Description: Colorless laminar crystals
Diffraction sample description: Powder
Measured chemistry: (Na_4.49_K_1.30_Ca_1.23_[box]_0.98_)_Σ=8_(Si_27.75_Al_8.25_)O_72_·19H_2_O
Cell parameters: a: 13.622(2) b: 18.179(1) c: 17.813(2) alpha: 90. beta: 90. gamma: 90. volume: 4411.6(5) crystal system: orthorhombic
x	intensity
5	0
5.22	8.589
5.44	16.009
5.66	8.189
5.88	6.483
6.1	17.703
6.32	18.208
6.54	4.591
6.76	6.079
6.98	14.704
7.2	2.372
7.42	1.893
7.64	10.35
7.86	9.88
8.08	17.709
8.3	8.055
8.52	1.048
8.74	18.111
8.96	4.978
9.18	3.987
9.4	32.844
9.62	262.954
9.84	153.158
10.06	25.585
10.28	17.698
10.5	11.41
10.72	11.117
10.94	3.552
11.16	12.043
11.38	3.2
11.6	2.657
11.82	19.146
12.04	8.442
12.26	7.317
12.48	1.644
12.7	6.974
12.92	15.001
13.14	8.065
13.36	5.53
13.58	10.664
13.8	5.151
14.02	5.343
14.24	8.63
14.46	7.464
14.68	15.573
14.9	9.74
15.12	4.604
15.34	10.464
15.56	13.342
15.78	3.982
16	5.849
16.22	5.524
16.44	16.699
16.66	9.745
16.88	9.624
17.1	17.671
17.32	2.275
17.54	3.012
17.76	5.762
17.98	3.4
18.2	9.13
18.42	11.047
18.64	3.956
18.86	10.259
19.08	214.91
19.3	14.661
19.52	22.051
19.74	10.681
19.96	14.442
20.18	1.274
20.4	3.888
20.62	11.242
20.84	107.718
21.06	12.226
21.28	15.605
21.5	10.227
21.72	13.913
21.94	755.605
22.16	38.353
22.38	0.448
22.6	17.579
22.82	7.46
23.04	5.578
23.26	1.571
23.48	6.093
23.7	10.139
23.92	103.811
24.14	14.135
24.36	10.03
24.58	7.806
24.8	6.68
25.02	0.644
25.24	7.158
25.46	12.839
25.68	61.462
25.9	0.751
26.12	114.178
26.34	146.791
26.56	10.762
26.78	7.854
27	1.094
27.22	10.144
27.44	3.511
27.66	2.373
27.88	11.205
28.1	78.195
28.32	12.657
28.54	16.383
28.76	41.437
28.98	9.791
29.2	0.01
29.42	61.276
29.64	188.443
29.86	186.956
30.08	34.215
30.3	10.628
30.52	0.109
30.74	5.366
30.96	5.839
31.18	14.22
31.4	14.581
31.62	1.821
31.84	12.178
32.06	11.169
32.28	67.771
32.5	13.085
32.72	10.313
32.94	0.1
33.16	27.309
33.38	12.341
33.6	16.448
33.82	4.432
34.04	2.067
34.26	1.863
34.48	24.576
34.7	13.551
34.92	12.605
35.14	43.625
35.36	21.56
35.58	3.246
35.8	16.411
36.02	12.039
36.24	26.023
36.46	3.639
36.68	7.603
36.9	1.323
37.12	12.247
37.34	7.738
37.56	4.1
37.78	10.098
38	1.775
38.22	4.182
38.44	10.061
38.66	10.591
38.88	2.938
39.1	13.507
39.32	0.858
39.54	5.953
39.76	21.782
39.98	0.332
40.2	9.711
40.42	15.481
40.64	18.086
40.86	13.177
41.08	15.536
41.3	8.37
41.52	10.249
41.74	10.304
41.96	14.512
42.18	3.296
42.4	2.151
42.62	13.641
42.84	3.995
43.06	9.439
43.28	10.957
43.5	3.313
43.72	6.855
43.94	12.783
44.16	1.456
44.38	15.96
44.6	21.825
44.82	13.263
45.04	17.835
45.26	10.714
45.48	5.766
45.7	5.762
45.92	13.235
46.14	2.797
46.36	6.703
46.58	7.999
46.8	7.731
47.02	4.198
47.24	4.184
47.46	5.226
47.68	6.662
47.9	11.968
48.12	11.406
48.34	2.906
48.56	8.652
48.78	4.294
49	12.954
49.22	2.642
49.44	14.481
49.66	4.128
49.88	5.005
50.1	12.117
50.32	5.286
50.54	11.617
50.76	8.938
50.98	2.165
51.2	10.147
51.42	7.675
51.64	5.199
51.86	4.756
52.08	12.166
52.3	12.609
52.52	10.702
52.74	18.898
52.96	6.781
53.18	22.753
53.4	3.645
53.62	16.083
53.84	1.867
54.06	4.613
54.28	8.587
54.5	14.478
54.72	6.411
54.94	5.454
55.16	7.359
55.38	7.385
55.6	10.838
55.82	2.978
56.04	7.647
56.26	8.794
56.48	0.919
56.7	13.679
56.92	5.268
57.14	6.161
57.36	2.089
57.58	4.709
57.8	8.694
58.02	25.166
58.24	19.983
58.46	9.038
58.68	1.975
58.9	5.931
59.12	8.056
59.34	5.794
59.56	10.333
59.78	12.381
60	8.237
60.22	14.69
60.44	7.908
60.66	6.12
60.88	2.449
61.1	9.742
61.32	9.169
61.54	7.06
61.76	2.906
61.98	0.673
62.2	9.821
62.42	16.851
62.64	16.836
62.86	3.929
63.08	8.013
63.3	1.796
63.52	8.313
63.74	4.738
63.96	2.166
64.18	0.121
64.4	7.883
64.62	8.823
64.84	5.809
65.06	4.561
65.28	5.495
65.5	3.39
65.72	5.519
65.94	1.68
66.16	0.315
66.38	6.735
66.6	8.612
66.82	13.657
67.04	6.683
67.26	0.409
67.48	2.526
67.7	0.858
67.92	3.922
68.14	11.875
68.36	6.842
68.58	5.261
68.8	10.499
69.02	11.852
69.24	3.178
69.46	9.328
69.68	10.681
69.9	5.958
70.12	5.727
70.34	6.075
70.56	5.232
70.78	11.183
71	3.803
71.22	5.611
71.44	6.284
71.66	9.951
71.88	3.767
72.1	15.487
72.32	7.276
72.54	15.447
72.76	14.12
72.98	10.362
73.2	5.612
73.42	12.689
73.64	3.889
73.86	1.381
74.08	0.394
74.3	8.86
74.52	6.206
74.74	7.469
74.96	4.244
75.18	6.601
75.4	3.814
75.62	6.795
75.84	1.795
76.06	7.774
76.28	7.448
76.5	1.568
76.72	7.376
76.94	8.406
77.16	5.266
77.38	10.127
77.6	15.42
77.82	8.527
78.04	10.626
78.26	5.976
78.48	0.176
78.7	6.377
78.92	12.533
79.14	5.94
79.36	3.999
79.58	6.105
79.8	7.225
80.02	11.111
80.24	8.802
80.46	13.634
80.68	7.637
80.9	11.91
81.12	7.905
81.34	2.952
81.56	16.214
81.78	1.161
82	5.243
82.22	9.233
82.44	12.412
82.66	8.615
82.88	11.736
83.1	14.872
83.32	5.662
83.54	6.676
83.76	1.543
83.98	8.316
84.2	6.367
84.42	9.402
84.64	2.239
84.86	4.153
85.08	7.182
85.3	2.109
85.52	4.105
85.74	0.873
85.96	2.402
86.18	8.617
86.4	4.514
86.62	2.534
86.84	0.291
87.06	5.773
87.28	3.657
87.5	7.736
87.72	3.851
87.94	6.886
88.16	2.212
88.38	6.063
88.6	4.27
88.82	2.386
89.04	8.456
89.26	7.764
89.48	2.199
89.7	10.067
89.92	3.806
