Measurement: Powder, Xray Data XY Processed
Mineral: Barytocalcite
Rruff sample: R050288
Ideal chemistry: BaCa(CO_3_)_2_
Locality: Cumberland, England
Source: Marcus Origlieri
Description: Light tan elongated crystals
Diffraction sample description: Powder
Measured chemistry: Ba_1.00_Ca_1.00_(CO_3_)_2_
Cell parameters: a: 8.1118(6) b: 5.2386(3) c: 6.5519(4) alpha: 90 beta: 106.097(5) gamma: 90 volume: 267.50(2) crystal system: monoclinic
x	intensity
5	0
5.22	5.1612
5.44	5.30209
5.66	6.50192
5.88	4.28792
6.1	19.2833
6.32	9.43027
6.54	18.5764
6.76	12.7317
6.98	1.36274
7.2	4.49789
7.42	6.61658
7.64	3.79516
7.86	5.86919
8.08	5.03582
8.3	7.28054
8.52	3.41464
8.74	6.51509
8.96	10.5775
9.18	3.45623
9.4	1.65364
9.62	4.38031
9.84	5.56081
10.06	12.5561
10.28	5.68244
10.5	5.58055
10.72	4.99908
10.94	7.10388
11.16	4.57774
11.38	167.896
11.6	2.07303
11.82	3.8286
12.04	4.39994
12.26	0.4772
12.48	0.64718
12.7	5.92245
12.92	0.13197
13.14	1.45663
13.36	5.63793
13.58	7.27214
13.8	5.12551
14.02	2.10856
14.24	3.9669
14.46	2.83156
14.68	3.9255
14.9	4.77086
15.12	1.13812
15.34	0.038951
15.56	1.02024
15.78	4.39755
16	7.76871
16.22	7.96397
16.44	1.18213
16.66	5.56841
16.88	0.669632
17.1	5.68088
17.32	0.657285
17.54	8.7939
17.76	1.02558
17.98	2.05583
18.2	5.73136
18.42	8.40098
18.64	1.43631
18.86	1.22261
19.08	4.93051
19.3	4.72602
19.52	6.5823
19.74	3.44459
19.96	8.32875
20.18	8.17715
20.4	80.0623
20.62	14.2357
20.84	7.98273
21.06	4.80227
21.28	0.32309
21.5	0.659711
21.72	2.37723
21.94	17.5672
22.16	59.5607
22.38	6.48314
22.6	3.40274
22.82	2.52719
23.04	26.6458
23.26	89.9915
23.48	8.43581
23.7	3.07878
23.92	0.409672
24.14	2.76429
24.36	6.11402
24.58	2.494
24.8	6.72878
25.02	5.89869
25.24	0.987011
25.46	3.91563
25.68	1.979
25.9	9.07158
26.12	4.46173
26.34	1.10853
26.56	7.72853
26.78	7.3367
27	0.176393
27.22	3.36666
27.44	32.951
27.66	3.52376
27.88	16.1182
28.1	6.94263
28.32	102.548
28.54	1409.68
28.76	24.2075
28.98	7.3742
29.2	8.58657
29.42	3.02266
29.64	11.4505
29.86	2.78516
30.08	4.27237
30.3	0.521137
30.52	4.66251
30.74	6.86346
30.96	1.70019
31.18	8.74117
31.4	3.98229
31.62	1.21049
31.84	1.36817
32.06	0.321912
32.28	4.28568
32.5	0.136106
32.72	4.22259
32.94	1.9957
33.16	6.77791
33.38	4.54752
33.6	7.19346
33.82	2.12316
34.04	2.5665
34.26	25.2961
34.48	12.079
34.7	16.9667
34.92	10.8123
35.14	0.544004
35.36	0.628263
35.58	5.79324
35.8	45.5094
36.02	1.86002
36.24	14.9367
36.46	4.93836
36.68	6.05509
36.9	0.747963
37.12	6.38598
37.34	2.66357
37.56	11.7414
37.78	113.93
38	12.9459
38.22	5.73031
38.44	9.62025
38.66	4.80999
38.88	0.037307
39.1	7.09591
39.32	1.13636
39.54	6.44896
39.76	5.44503
39.98	4.45773
40.2	17.5079
40.42	8.33545
40.64	3.96828
40.86	0.232097
41.08	2.41198
41.3	7.15429
41.52	16.0666
41.74	20.9341
41.96	33.4607
42.18	6.53876
42.4	1.33923
42.62	6.70932
42.84	16.9946
43.06	8.09337
43.28	9.06924
43.5	2.06076
43.72	10.8953
43.94	2.76633
44.16	3.57091
44.38	21.2911
44.6	16.3321
44.82	42.3663
45.04	42.4644
45.26	44.0215
45.48	9.80224
45.7	0.329336
45.92	1.44389
46.14	11.7333
46.36	22.6217
46.58	74.5909
46.8	10.5339
47.02	4.15557
47.24	2.04891
47.46	7.26903
47.68	19.6138
47.9	15.9908
48.12	46.5822
48.34	2.80827
48.56	12.7622
48.78	6.19723
49	1.58733
49.22	4.86145
49.44	3.27076
49.66	5.4252
49.88	10.6252
50.1	14.606
50.32	3.58635
50.54	2.34363
50.76	6.4415
50.98	11.7327
51.2	12.9422
51.42	203.213
51.64	6.42153
51.86	1.34966
52.08	6.55943
52.3	7.8949
52.52	5.19889
52.74	4.25826
52.96	8.29525
53.18	5.2832
53.4	0.016072
53.62	1.74709
53.84	7.34894
54.06	4.34182
54.28	0.240823
54.5	13.9569
54.72	14.5941
54.94	9.2714
55.16	1.17771
55.38	0.104547
55.6	2.2643
55.82	6.33999
56.04	33.7725
56.26	2.87028
56.48	11.7119
56.7	3.67805
56.92	1.77965
57.14	1.9239
57.36	3.29793
57.58	20.3785
57.8	38.563
58.02	10.3685
58.24	4.13557
58.46	4.89352
58.68	7.83402
58.9	0.796063
59.12	7.7255
59.34	5.70455
59.56	13.7669
59.78	4.86035
60	18.9785
60.22	7.79906
60.44	1.78211
60.66	1.28541
60.88	2.86494
61.1	4.78102
61.32	2.6469
61.54	5.51441
61.76	6.46632
61.98	6.31689
62.2	32.8899
62.42	22.5776
62.64	11.4248
62.86	6.619
63.08	1.26892
63.3	2.52236
63.52	4.58107
63.74	7.78963
63.96	0.022046
64.18	2.94058
64.4	8.26033
64.62	8.55474
64.84	3.94169
65.06	4.04618
65.28	12.881
65.5	3.7565
65.72	1.82003
65.94	1.82119
66.16	38.7848
66.38	7.86875
66.6	1.68124
66.82	5.51979
67.04	5.50457
67.26	2.27579
67.48	1.68538
67.7	4.78964
67.92	9.84748
68.14	4.94825
68.36	0.052484
68.58	3.05726
68.8	4.24586
69.02	5.44151
69.24	2.48993
69.46	6.44478
69.68	8.63913
69.9	3.4601
70.12	1.41897
70.34	9.40047
70.56	7.55264
70.78	0.704739
71	5.53418
71.22	9.32777
71.44	6.14825
71.66	4.11422
71.88	3.01165
72.1	2.7584
72.32	7.81178
72.54	8.9719
72.76	9.08776
72.98	13.763
73.2	0.652396
73.42	0.635663
73.64	2.49222
73.86	2.33558
74.08	13.1712
74.3	7.05106
74.52	1.93308
74.74	2.55291
74.96	2.42569
75.18	4.2764
75.4	7.60572
75.62	6.68879
75.84	8.94587
76.06	4.11599
76.28	6.3927
76.5	4.58456
76.72	0.722206
76.94	0.976679
77.16	2.09652
77.38	7.34944
77.6	28.3494
77.82	9.99393
78.04	0.81232
78.26	1.72058
78.48	2.39622
78.7	10.5543
78.92	10.4902
79.14	0.493948
79.36	5.4959
79.58	7.66717
79.8	2.52384
80.02	6.65706
80.24	8.16288
80.46	3.48288
80.68	6.53728
80.9	4.6982
81.12	4.77718
81.34	6.12077
81.56	4.1474
81.78	1.01602
82	5.81686
82.22	2.76249
82.44	3.62252
82.66	6.43738
82.88	4.20842
83.1	3.10116
83.32	9.01088
83.54	0.013496
83.76	1.7744
83.98	0.796218
84.2	0.873655
84.42	9.9144
84.64	5.47237
84.86	8.54424
85.08	3.54828
85.3	0.520689
85.52	2.49209
85.74	0.489973
85.96	3.45887
86.18	5.35502
86.4	6.34777
86.62	6.30541
86.84	3.33472
87.06	3.95932
87.28	2.08701
87.5	4.21468
87.72	10.5472
87.94	3.77464
88.16	3.97475
88.38	2.20088
88.6	0.549138
88.82	1.67775
89.04	0.064149
89.26	4.99128
89.48	7.79712
89.7	2.9067
89.92	3.22745
