Measurement: Powder, Xray Data XY Processed
Mineral: Baryte
Rruff sample: R050335
Ideal chemistry: BaS^6+^O_4_
Locality: Bullion Mountains, San Bernardino County, California, USA
Source: California Institute of Technology
Description: Colorless cleavage fragment
Diffraction sample description: Powder
Measured chemistry: (Ba_0.95_Sr_0.05_)_Î£=1_S_1.00_O_4_
Cell parameters: a: 8.8327(8) b: 5.4480(6) c: 7.1297(2) alpha: 90. beta: 90. gamma: 90. volume: 343.09(3) crystal system: orthorhombic
x	intensity
5	0
5.22	0.201369
5.44	9.17236
5.66	2.08426
5.88	12.387
6.1	10.0706
6.32	6.33386
6.54	6.60243
6.76	5.41108
6.98	7.07781
7.2	9.80954
7.42	2.36383
7.64	6.68992
7.86	0.153624
8.08	3.0459
8.3	1.14145
8.52	1.9099
8.74	11.8175
8.96	1.63808
9.18	11.5801
9.4	13.5634
9.62	7.32662
9.84	7.68633
10.06	7.83817
10.28	0.988782
10.5	1.38899
10.72	0.568212
10.94	2.77544
11.16	2.04024
11.38	4.16886
11.6	2.14215
11.82	2.97115
12.04	2.01042
12.26	7.75637
12.48	4.83144
12.7	4.83036
12.92	4.59426
13.14	1.50622
13.36	1.36947
13.58	0.835431
13.8	5.03766
14.02	7.04787
14.24	4.06658
14.46	4.92748
14.68	1.82156
14.9	8.66499
15.12	3.71164
15.34	3.70341
15.56	4.02028
15.78	5.20388
16	7.32956
16.22	5.46105
16.44	3.64345
16.66	2.10625
16.88	6.11986
17.1	2.18324
17.32	1.2631
17.54	6.20111
17.76	2.25275
17.98	5.98222
18.2	5.90558
18.42	0.93118
18.64	5.91835
18.86	8.65067
19.08	2.39195
19.3	1.1585
19.52	4.08434
19.74	2.01547
19.96	4.92519
20.18	25.9856
20.4	11.9347
20.62	45.1937
20.84	9.11041
21.06	7.20117
21.28	4.39295
21.5	2.35033
21.72	1.24052
21.94	2.09417
22.16	2.88393
22.38	6.70775
22.6	11.4553
22.82	39.2217
23.04	31.8544
23.26	4.83898
23.48	6.44748
23.7	27.0369
23.92	4.81551
24.14	4.61468
24.36	5.69776
24.58	2.55927
24.8	6.05039
25.02	145.675
25.24	3.32594
25.46	3.74525
25.68	8.4932
25.9	88.3371
26.12	118.291
26.34	5.3956
26.56	9.28616
26.78	14.4571
27	160.131
27.22	21.5313
27.44	9.07733
27.66	4.48384
27.88	6.72025
28.1	1.0232
28.32	5.19483
28.54	11.3767
28.76	47.5655
28.98	160.864
29.2	16.9492
29.42	4.07216
29.64	10.3072
29.86	4.6314
30.08	0.919595
30.3	4.94404
30.52	2.93008
30.74	7.84862
30.96	7.66401
31.18	4.37511
31.4	19.1415
31.62	61.8268
31.84	42.2771
32.06	0.145444
32.28	2.5635
32.5	0.621584
32.72	31.8834
32.94	87.4155
33.16	19.9178
33.38	4.52188
33.6	2.98243
33.82	0.637805
34.04	3.06049
34.26	4.44759
34.48	2.73963
34.7	3.02219
34.92	1.8258
35.14	0.2441
35.36	3.46208
35.58	5.22937
35.8	5.03747
36.02	2.95718
36.24	9.98737
36.46	22.9335
36.68	8.41589
36.9	3.36437
37.12	2.39496
37.34	1.3802
37.56	4.29304
37.78	2.15219
38	4.97076
38.22	0.816085
38.44	2.63835
38.66	9.14865
38.88	33.7754
39.1	7.75059
39.32	13.0621
39.54	7.72788
39.76	16.541
39.98	6.40991
40.2	1.64262
40.42	5.36044
40.64	1.24063
40.86	19.117
41.08	24.993
41.3	1.59957
41.52	4.57322
41.74	0.378811
41.96	1.1775
42.18	1.74963
42.4	11.3358
42.62	53.1691
42.84	101.861
43.06	161.863
43.28	65.7847
43.5	12.8186
43.72	7.45501
43.94	3.16353
44.16	16.0985
44.38	18.8274
44.6	5.73423
44.82	4.47194
45.04	3.09163
45.26	2.40671
45.48	1.01013
45.7	1.36687
45.92	3.6219
46.14	2.57856
46.36	2.48379
46.58	2.23874
46.8	7.2544
47.02	6.19388
47.24	15.3373
47.46	3.07517
47.68	7.05818
47.9	0.939034
48.12	0.035591
48.34	5.0065
48.56	2.98365
48.78	7.03322
49	6.0557
49.22	14.8633
49.44	20.8268
49.66	4.67106
49.88	3.97685
50.1	4.76686
50.32	0.594
50.54	1.57689
50.76	0.510546
50.98	0.629138
51.2	8.09536
51.42	9.89436
51.64	1.82919
51.86	0.41254
52.08	11.5379
52.3	21.279
52.52	6.46606
52.74	2.85405
52.96	4.04958
53.18	9.19224
53.4	1.21682
53.62	1.27536
53.84	3.31027
54.06	0.251213
54.28	4.17173
54.5	6.90277
54.72	7.95912
54.94	16.8301
55.16	31.458
55.38	8.22456
55.6	9.23899
55.82	1.45573
56.04	0.328915
56.26	21.1064
56.48	9.27898
56.7	5.49475
56.92	3.72194
57.14	7.75927
57.36	5.95997
57.58	1.25077
57.8	9.48745
58.02	5.55829
58.24	11.0352
58.46	12.0566
58.68	0.107004
58.9	1.85988
59.12	3.78063
59.34	6.65937
59.56	0.457553
59.78	6.24766
60	9.92995
60.22	14.6546
60.44	27.4344
60.66	11.9872
60.88	25.0373
61.1	10.8924
61.32	0.982661
61.54	3.17437
61.76	0.779982
61.98	4.23163
62.2	10.2388
62.42	0.723139
62.64	8.26735
62.86	3.34998
63.08	11.1113
63.3	19.874
63.52	5.20407
63.74	3.45617
63.96	1.57475
64.18	1.45875
64.4	2.35231
64.62	0.781499
64.84	0.990988
65.06	3.69821
65.28	10.3145
65.5	15.1321
65.72	19.7721
65.94	15.0263
66.16	4.54926
66.38	7.28843
66.6	4.53533
66.82	6.50514
67.04	6.52908
67.26	8.74608
67.48	1.07691
67.7	0.360311
67.92	17.5884
68.14	12.0375
68.36	0.48983
68.58	0.943172
68.8	7.83078
69.02	9.77672
69.24	5.05489
69.46	7.35181
69.68	6.64807
69.9	8.75039
70.12	8.9385
70.34	0.116192
70.56	0.92061
70.78	4.02032
71	1.10037
71.22	4.2906
71.44	6.49931
71.66	13.5252
71.88	9.29356
72.1	3.27901
72.32	4.4937
72.54	1.58395
72.76	4.55188
72.98	18.5691
73.2	16.7781
73.42	4.5697
73.64	5.49185
73.86	4.26109
74.08	5.15273
74.3	6.04611
74.52	0.928144
74.74	2.6898
74.96	1.44838
75.18	4.43969
75.4	15.4564
75.62	18.6618
75.84	12.8794
76.06	6.96433
76.28	6.3734
76.5	2.54636
76.72	6.77659
76.94	1.02966
77.16	6.11719
77.38	2.18906
77.6	5.1702
77.82	5.14428
78.04	1.73961
78.26	0.829261
78.48	9.8067
78.7	9.55325
78.92	10.3746
79.14	10.2024
79.36	2.15872
79.58	4.10437
79.8	3.10597
80.02	6.08185
80.24	9.29106
80.46	4.4183
80.68	11.331
80.9	7.40257
81.12	2.53497
81.34	6.64008
81.56	3.68295
81.78	1.75696
82	1.16302
82.22	0.841154
82.44	4.9374
82.66	0.936398
82.88	2.84999
83.1	5.00782
83.32	5.7419
83.54	1.67837
83.76	2.63171
83.98	3.56501
84.2	3.64341
84.42	5.66551
84.64	13.6523
84.86	14.637
85.08	5.42259
85.3	2.30871
85.52	0.918859
85.74	1.03639
85.96	2.96356
86.18	1.91013
86.4	3.08087
86.62	8.92854
86.84	7.96903
87.06	10.0043
87.28	8.1426
87.5	3.29715
87.72	2.0912
87.94	3.99157
88.16	0.230628
88.38	6.52511
88.6	5.14928
88.82	7.81839
89.04	5.44161
89.26	7.68681
89.48	5.93037
89.7	0.493559
89.92	7.77268
