Measurement: Powder, Xray Data XY Processed
Mineral: Baryte
Rruff sample: R040036
Ideal chemistry: BaS^6+^O_4_
Locality: Cumbria County, England
Source: University of Arizona Mineral Museum
Description: Golden brown tabular crystal
Diffraction sample description: Powder
Measured chemistry: Ba_1.00_S_1.00_O_4_; trace amounts of Pb
Cell parameters: a: 7.1549(2) b: 8.8773(5) c: 5.4530(3) alpha: 90. beta: 90. gamma: 90. volume: 346.35(2) crystal system: orthorhombic
x	intensity
5	0
5.22	11.823
5.44	10.857
5.66	17.71
5.88	12.031
6.1	5.458
6.32	0.709
6.54	6.079
6.76	8.792
6.98	5.132
7.2	8.743
7.42	9.259
7.64	2.802
7.86	5.148
8.08	2.551
8.3	0.783
8.52	2.049
8.74	11.312
8.96	1.448
9.18	7.901
9.4	15.509
9.62	11.806
9.84	4.291
10.06	8.793
10.28	6.408
10.5	2.61
10.72	6.852
10.94	7.026
11.16	4.17
11.38	1.267
11.6	3.927
11.82	7.721
12.04	4.504
12.26	0.582
12.48	4.098
12.7	1.721
12.92	0.337
13.14	6.78
13.36	5.76
13.58	6.768
13.8	5.841
14.02	6.821
14.24	13.016
14.46	3.078
14.68	7.912
14.9	3.929
15.12	1.246
15.34	6.208
15.56	5.649
15.78	8.859
16	3.88
16.22	8.803
16.44	2.063
16.66	4.964
16.88	7.993
17.1	5.976
17.32	5.908
17.54	4.918
17.76	7.179
17.98	1.886
18.2	3.719
18.42	2.897
18.64	7.173
18.86	3.915
19.08	5.824
19.3	1.737
19.52	5.602
19.74	2.522
19.96	20.647
20.18	17.13
20.4	21.189
20.62	25.548
20.84	8.346
21.06	1.105
21.28	5.196
21.5	0.066
21.72	1.939
21.94	2.785
22.16	1.367
22.38	1.178
22.6	8.984
22.82	121.051
23.04	25.917
23.26	2.833
23.48	7.667
23.7	25.357
23.92	1.088
24.14	1.204
24.36	5.639
24.58	7.223
24.8	7.772
25.02	37.37
25.24	12.4
25.46	8.049
25.68	9.681
25.9	308.21
26.12	19.252
26.34	17.389
26.56	14.925
26.78	55.038
27	101.433
27.22	8.058
27.44	5.499
27.66	2.161
27.88	4.077
28.1	0.418
28.32	2.266
28.54	25.175
28.76	149.153
28.98	53.151
29.2	12.351
29.42	7.524
29.64	8.889
29.86	5.208
30.08	3.229
30.3	1.134
30.52	3.992
30.74	2.814
30.96	4.305
31.18	5.457
31.4	20.15
31.62	96.917
31.84	15.746
32.06	0.812
32.28	4.322
32.5	7.654
32.72	38.037
32.94	68.37
33.16	6.993
33.38	6.569
33.6	2.212
33.82	5.604
34.04	6.309
34.26	1.366
34.48	4.003
34.7	2.955
34.92	4.833
35.14	8.759
35.36	3.742
35.58	1.488
35.8	9.327
36.02	12.193
36.24	25.344
36.46	9.066
36.68	15.355
36.9	7.593
37.12	1.484
37.34	0.473
37.56	7.405
37.78	6.342
38	4.204
38.22	4.183
38.44	5.832
38.66	6.448
38.88	38.522
39.1	15.002
39.32	2.114
39.54	8.667
39.76	4.412
39.98	0.115
40.2	2.739
40.42	1.45
40.64	12.307
40.86	71.406
41.08	13.604
41.3	0.769
41.52	7.823
41.74	2.85
41.96	2.887
42.18	11.399
42.4	32.818
42.62	143.493
42.84	127.108
43.06	150.753
43.28	36.348
43.5	4.889
43.72	1.23
43.94	12.518
44.16	39.59
44.38	10.867
44.6	8.988
44.82	0.865
45.04	5.105
45.26	5.93
45.48	3.473
45.7	3.889
45.92	6.984
46.14	5.319
46.36	3.972
46.58	2.843
46.8	4.597
47.02	14.481
47.24	11.166
47.46	4.163
47.68	2.005
47.9	4.975
48.12	1.951
48.34	3.97
48.56	0.11
48.78	8.306
49	31.449
49.22	31.539
49.44	14.572
49.66	0.598
49.88	2.278
50.1	8.358
50.32	0.721
50.54	1.664
50.76	0.195
50.98	4.902
51.2	7.628
51.42	7.361
51.64	2.701
51.86	7.167
52.08	22.107
52.3	22.265
52.52	4.942
52.74	1.201
52.96	16.206
53.18	9.297
53.4	2.31
53.62	3.258
53.84	5.091
54.06	8.69
54.28	10.459
54.5	22.326
54.72	14.046
54.94	40.315
55.16	16.995
55.38	2.847
55.6	3.004
55.82	2.653
56.04	7.595
56.26	9.172
56.48	6.552
56.7	3.884
56.92	3.119
57.14	2.176
57.36	3.454
57.58	2.967
57.8	14.372
58.02	17.391
58.24	10.228
58.46	3.646
58.68	1.452
58.9	2.308
59.12	4.221
59.34	3.145
59.56	3.056
59.78	9.78
60	3.444
60.22	14.439
60.44	34.623
60.66	23.513
60.88	18.938
61.1	2.832
61.32	3.074
61.54	7.166
61.76	6.021
61.98	3.885
62.2	9.815
62.42	7.763
62.64	10.454
62.86	3.105
63.08	20.926
63.3	14.081
63.52	8.344
63.74	3.877
63.96	6.594
64.18	3.452
64.4	1.274
64.62	3.001
64.84	1.508
65.06	12.052
65.28	20.634
65.5	28.213
65.72	22.348
65.94	16.45
66.16	1.283
66.38	20.389
66.6	24.299
66.82	12.286
67.04	8.385
67.26	1.767
67.48	0.332
67.7	12.653
67.92	8.947
68.14	17.316
68.36	1.708
68.58	6.553
68.8	10.64
69.02	6.123
69.24	2.82
69.46	2.364
69.68	14.71
69.9	5.894
70.12	5.322
70.34	9.676
70.56	4.935
70.78	2.487
71	9.756
71.22	6.95
71.44	19.866
71.66	6.581
71.88	0.334
72.1	0.266
72.32	4.35
72.54	10.139
72.76	15.952
72.98	6.833
73.2	8.277
73.42	10.067
73.64	5.971
73.86	6.748
74.08	5.545
74.3	7.384
74.52	5.024
74.74	13.809
74.96	12.81
75.18	20.837
75.4	22.135
75.62	10.422
75.84	7.776
76.06	6.315
76.28	0.851
76.5	6.109
76.72	3.324
76.94	4.498
77.16	2.576
77.38	2.389
77.6	8.461
77.82	5.331
78.04	6.367
78.26	6.02
78.48	11.638
78.7	12.198
78.92	7.049
79.14	1.948
79.36	0.155
79.58	10.778
79.8	2.805
80.02	18.123
80.24	9.354
80.46	5.253
80.68	9.431
80.9	6.968
81.12	6.2
81.34	3.409
81.56	5.586
81.78	3.749
82	8.956
82.22	5.115
82.44	13.086
82.66	8.03
82.88	4.741
83.1	4.522
83.32	6.061
83.54	1.867
83.76	0.653
83.98	1.622
84.2	3.657
84.42	16.451
84.64	10.043
84.86	1.858
85.08	3.534
85.3	4.392
85.52	5.253
85.74	1.139
85.96	5.197
86.18	4.303
86.4	10.427
86.62	10.294
86.84	12.254
87.06	5.116
87.28	0.978
87.5	3.003
87.72	2.659
87.94	10.254
88.16	7.78
88.38	7.098
88.6	8.416
88.82	9.685
89.04	8.861
89.26	6.191
89.48	5.205
89.7	12.093
89.92	12.529
