Measurement: Powder, Xray Data XY Processed
Mineral: Bastnasite-(Ce)
Rruff sample: R060737
Ideal chemistry: CeCO_3_F
Locality: Zagi Mountain, near Hammedabad, Khaffor Dehri, NW Frontier Provence, Pakistan
Source: Herb Obodda
Description: Reddish-brown fragment
Diffraction sample description: Powder
Measured chemistry: (Ce_0.55_Nd_0.27_La_0.18_)_Î£=1_CO_3_F_1.00_
Cell parameters: a: 7.1130(1) b: 7.1130(1) c: 9.7596(3) alpha: 90. beta: 90. gamma: 120. volume: 427.64(1) crystal system: hexagonal
x	intensity
5	0
5.22	7.43067
5.44	9.9643
5.66	14.6414
5.88	15.1161
6.1	0.769631
6.32	1.28329
6.54	8.9309
6.76	13.4359
6.98	12.0108
7.2	11.3535
7.42	7.86196
7.64	0.159672
7.86	7.5237
8.08	3.70495
8.3	0.174982
8.52	5.90648
8.74	1.17147
8.96	1.57857
9.18	2.26815
9.4	1.1688
9.62	8.11031
9.84	10.6209
10.06	10.4007
10.28	4.30821
10.5	13.6305
10.72	16.8635
10.94	7.98745
11.16	2.15473
11.38	5.46111
11.6	3.9871
11.82	12.1091
12.04	5.37725
12.26	3.39947
12.48	2.50842
12.7	2.40544
12.92	6.33498
13.14	4.20344
13.36	6.50102
13.58	5.29524
13.8	6.3164
14.02	4.20882
14.24	3.24432
14.46	6.06068
14.68	6.21631
14.9	9.44366
15.12	2.47014
15.34	3.73357
15.56	7.63709
15.78	3.4938
16	5.49888
16.22	4.59985
16.44	13.4447
16.66	7.47105
16.88	6.41789
17.1	5.23056
17.32	2.04212
17.54	8.89275
17.76	2.97745
17.98	4.94993
18.2	235.188
18.42	10.3505
18.64	1.22691
18.86	0.02801
19.08	4.96378
19.3	6.00719
19.52	7.31032
19.74	6.48844
19.96	4.40552
20.18	12.2907
20.4	1.3968
20.62	5.39426
20.84	2.52763
21.06	4.54675
21.28	8.88283
21.5	10.9841
21.72	3.15173
21.94	4.14517
22.16	5.16846
22.38	2.30769
22.6	15.3939
22.82	4.29407
23.04	1.95302
23.26	6.64663
23.48	0.53179
23.7	0.02179
23.92	0.769732
24.14	2.45316
24.36	4.04319
24.58	1.00261
24.8	7.81918
25.02	174.821
25.24	21.8332
25.46	9.91499
25.68	4.3339
25.9	7.4205
26.12	8.80064
26.34	4.11266
26.56	7.32312
26.78	5.52509
27	8.40419
27.22	5.4195
27.44	0.568751
27.66	6.69314
27.88	4.75978
28.1	10.7971
28.32	2.84308
28.54	2.73296
28.76	6.64267
28.98	1.41485
29.2	6.40099
29.42	6.32547
29.64	1.22469
29.86	4.83659
30.08	6.56812
30.3	5.28558
30.52	5.75395
30.74	7.67195
30.96	21.7689
31.18	189.702
31.4	26.7075
31.62	0.139809
31.84	2.8708
32.06	5.01248
32.28	11.1604
32.5	0.548997
32.72	2.81788
32.94	6.04379
33.16	7.20168
33.38	0.130787
33.6	12.4555
33.82	7.57774
34.04	0.185615
34.26	3.93323
34.48	10.8399
34.7	1.86542
34.92	4.80232
35.14	5.73005
35.36	3.67691
35.58	5.43069
35.8	5.37494
36.02	5.17208
36.24	0.096954
36.46	5.03425
36.68	0.209304
36.9	14.2619
37.12	6.29489
37.34	0.475385
37.56	1.75377
37.78	4.92474
38	4.04772
38.22	10.3275
38.44	1.63889
38.66	4.5693
38.88	4.62264
39.1	3.51841
39.32	7.58117
39.54	1.30699
39.76	9.57494
39.98	2.65825
40.2	4.66632
40.42	11.6638
40.64	7.54826
40.86	1.32329
41.08	6.35678
41.3	4.41456
41.52	0.530062
41.74	3.44353
41.96	3.04937
42.18	1.82086
42.4	1.54679
42.62	0.76229
42.84	7.74843
43.06	7.33286
43.28	6.96331
43.5	0.651815
43.72	8.24253
43.94	12.7809
44.16	61.4496
44.38	7.64375
44.6	4.78936
44.82	0.733699
45.04	142.027
45.26	25.5821
45.48	5.99454
45.7	4.65199
45.92	0.770267
46.14	0.193054
46.36	6.59454
46.58	2.86966
46.8	3.71831
47.02	5.48708
47.24	8.38297
47.46	10.2408
47.68	0.928892
47.9	11.6966
48.12	65.5299
48.34	18.6266
48.56	2.56677
48.78	0.382221
49	1.65891
49.22	8.93677
49.44	4.19135
49.66	9.49875
49.88	3.53163
50.1	5.62279
50.32	11.7212
50.54	2.68843
50.76	0.726132
50.98	1.90094
51.2	4.77909
51.42	20.7847
51.64	4.09738
51.86	4.01244
52.08	9.8831
52.3	9.97564
52.52	2.00169
52.74	2.02408
52.96	0.255476
53.18	2.33017
53.4	2.10629
53.62	4.97547
53.84	0.928008
54.06	2.43071
54.28	5.3903
54.5	0.553519
54.72	4.29229
54.94	100.43
55.16	23.5783
55.38	8.22275
55.6	2.07153
55.82	2.02671
56.04	0.86652
56.26	4.09892
56.48	4.05451
56.7	7.16753
56.92	13.1717
57.14	3.17484
57.36	3.06395
57.58	2.0495
57.8	3.10778
58.02	1.17728
58.24	6.24786
58.46	6.49118
58.68	17.5743
58.9	22.6631
59.12	8.60224
59.34	4.84957
59.56	4.85062
59.78	2.83617
60	7.95289
60.22	9.13257
60.44	5.15704
60.66	5.33997
60.88	1.02755
61.1	5.0729
61.32	9.05917
61.54	6.08098
61.76	4.77351
61.98	11.6962
62.2	7.59853
62.42	3.74492
62.64	12.637
62.86	13.7532
63.08	6.60487
63.3	6.62727
63.52	6.58674
63.74	0.559364
63.96	1.47149
64.18	0.370504
64.4	5.73686
64.62	6.99901
64.84	21.9159
65.06	21.9455
65.28	6.09224
65.5	5.13786
65.72	7.19272
65.94	4.24491
66.16	10.4899
66.38	0.648751
66.6	7.58034
66.82	2.79155
67.04	1.66375
67.26	6.58099
67.48	4.81227
67.7	4.60911
67.92	3.76976
68.14	10.6674
68.36	6.67537
68.58	0.593904
68.8	5.1598
69.02	7.00699
69.24	3.59322
69.46	9.51272
69.68	7.43506
69.9	12.0743
70.12	15.1639
70.34	6.93169
70.56	1.01302
70.78	0.964083
71	1.23991
71.22	4.61029
71.44	9.75438
71.66	0.239276
71.88	1.34787
72.1	4.51785
72.32	3.41645
72.54	0.863505
72.76	13.0213
72.98	80.9728
73.2	52.7543
73.42	8.29369
73.64	0.083942
73.86	5.01054
74.08	6.2029
74.3	12.4583
74.52	5.76514
74.74	6.88496
74.96	1.14488
75.18	5.29179
75.4	0.324006
75.62	6.53748
75.84	6.73034
76.06	4.27554
76.28	3.35082
76.5	6.30449
76.72	5.07708
76.94	1.27326
77.16	8.50812
77.38	4.52615
77.6	6.53652
77.82	9.6443
78.04	1.65174
78.26	3.9708
78.48	0.396558
78.7	2.56623
78.92	0.484102
79.14	12.3371
79.36	6.04339
79.58	7.94753
79.8	16.9353
80.02	9.69021
80.24	7.4826
80.46	2.29684
80.68	1.2045
80.9	8.58039
81.12	11.473
81.34	9.60624
81.56	1.76639
81.78	35.911
82	28.7259
82.22	0.228613
82.44	0.192035
82.66	6.76448
82.88	5.69668
83.1	0.644335
83.32	3.62767
83.54	5.67816
83.76	12.4789
83.98	30.1945
84.2	21.4417
84.42	4.52297
84.64	9.81177
84.86	2.03241
85.08	5.2817
85.3	2.77189
85.52	2.01511
85.74	2.40474
85.96	0.241083
86.18	5.9866
86.4	4.0883
86.62	7.92769
86.84	2.85093
87.06	5.75223
87.28	4.69943
87.5	4.69773
87.72	2.6426
87.94	4.66113
88.16	1.52935
88.38	9.43164
88.6	3.49436
88.82	9.63728
89.04	7.82235
89.26	3.974
89.48	1.06434
89.7	4.30689
89.92	7.51971
