Measurement: Powder, Xray Data XY Processed
Mineral: Bavenite
Rruff sample: R060128
Ideal chemistry: Ca_4_Be_2+x_Al_2-x_Si_9_O_26-x_(OH)_2+x_ (x = 0 to 1)
Locality: Foot mine, Kings Mountain, Cleveland County, North Carolina, USA
Source: University of Arizona Mineral Museum
Description: White bladed radial aggregate
Diffraction sample description: Single crystal, powder profile is calculated
Measured chemistry: Ca_4.00_Be_2.00_(Al_1.98_Fe^3+^_0.02_)_Î£=2_Si_9.00_O_26_(OH)_2_
Cell parameters: a: 23.185(6) b: 5.010(2) c: 19.425(7) alpha: 90 beta: 90 gamma: 90 volume: 2256(5) crystal system: orthorhombic
x	intensity
5	0
5.22	0
5.44	0
5.66	0
5.88	0
6.1	0
6.32	0
6.54	0
6.76	0
6.98	0
7.2	0
7.42	0
7.64	15.559
7.86	0
8.08	0
8.3	0
8.52	0
8.74	0
8.96	0
9.18	0.035
9.4	0
9.62	0
9.84	0
10.06	0
10.28	0
10.5	0
10.72	0
10.94	0
11.16	0
11.38	0
11.6	0
11.82	1.102
12.04	0
12.26	0
12.48	0
12.7	0
12.92	0
13.14	0
13.36	0
13.58	0
13.8	0
14.02	0
14.24	0
14.46	0
14.68	0
14.9	0
15.12	0
15.34	0.137
15.56	0
15.78	0
16	0
16.22	0
16.44	0
16.66	0
16.88	0
17.1	0
17.32	0
17.54	0
17.76	1.979
17.98	0
18.2	1.79
18.42	0.001
18.64	0.468
18.86	0
19.08	0
19.3	0
19.52	0
19.74	0.014
19.96	0
20.18	0.003
20.4	0.475
20.62	0
20.84	0
21.06	4.681
21.28	0.008
21.5	0
21.72	0.001
21.94	0
22.16	0
22.38	0
22.6	0
22.82	0.176
23.04	10.443
23.26	0
23.48	0
23.7	0
23.92	35.629
24.14	0
24.36	0
24.58	0
24.8	1.371
25.02	0
25.24	0.357
25.46	0
25.68	0
25.9	0.402
26.12	6.983
26.34	0.011
26.56	93.072
26.78	0
27	0
27.22	0
27.44	0.177
27.66	0.841
27.88	1.32
28.1	0.117
28.32	0
28.54	1.797
28.76	0.157
28.98	0
29.2	0.006
29.42	5.807
29.64	19.874
29.86	0
30.08	0
30.3	0
30.52	0
30.74	0.007
30.96	0.041
31.18	0
31.4	5.277
31.62	5.33
31.84	0
32.06	0.954
32.28	1.042
32.5	0.047
32.72	3.951
32.94	0
33.16	0.134
33.38	0
33.6	0.02
33.82	0.751
34.04	0
34.26	0
34.48	0
34.7	0
34.92	5.093
35.14	4.282
35.36	2.444
35.58	0
35.8	0.087
36.02	0.11
36.24	2.687
36.46	0
36.68	2.439
36.9	0.444
37.12	1.553
37.34	2.742
37.56	0.027
37.78	0.497
38	0.22
38.22	0
38.44	0.085
38.66	0.036
38.88	2.616
39.1	0.048
39.32	10.768
39.54	2.175
39.76	0.089
39.98	4.788
40.2	0.184
40.42	2.469
40.64	1.228
40.86	0
41.08	0
41.3	0.602
41.52	0.475
41.74	0.535
41.96	1.221
42.18	0.01
42.4	0
42.62	0
42.84	0.002
43.06	1.76
43.28	0.986
43.5	3.373
43.72	2.622
43.94	0.007
44.16	0.265
44.38	0
44.6	0
44.82	0
45.04	0
45.26	0.001
45.48	0.002
45.7	0.013
45.92	6.939
46.14	0.097
46.36	0.684
46.58	0.712
46.8	0.945
47.02	2.895
47.24	0.749
47.46	0.435
47.68	0.015
47.9	0.045
48.12	0.179
48.34	0.355
48.56	1.231
48.78	2.384
49	0.629
49.22	0.004
49.44	0.024
49.66	0.059
49.88	0.019
50.1	1.917
50.32	0.003
50.54	0.294
50.76	0.123
50.98	0.204
51.2	0
51.42	0
51.64	0.233
51.86	4.858
52.08	0.005
52.3	0
52.52	0.039
52.74	5.161
52.96	0.007
53.18	0.034
53.4	0
53.62	0
53.84	1.918
54.06	0.13
54.28	0.003
54.5	0.009
54.72	3.708
54.94	1.875
55.16	0.336
55.38	2.382
55.6	1.634
55.82	1.246
56.04	0.099
56.26	1.188
56.48	1.635
56.7	0.607
56.92	0.268
57.14	0.124
57.36	1.163
57.58	0.113
57.8	0.016
58.02	1.702
58.24	0.542
58.46	0.101
58.68	0.63
58.9	4.212
59.12	0.422
59.34	0.062
59.56	0.606
59.78	0.354
60	0.134
60.22	2.245
60.44	1.524
60.66	1.251
60.88	0.34
61.1	0.006
61.32	1.955
61.54	0.242
61.76	0.037
61.98	0.368
62.2	2.022
62.42	3.082
62.64	1.688
62.86	0.562
63.08	0.675
63.3	0.114
63.52	0.009
63.74	1.701
63.96	0.552
64.18	0.337
64.4	0.071
64.62	0.189
64.84	0.253
65.06	0.134
65.28	2.732
65.5	1.584
65.72	0.253
65.94	0.001
66.16	0.011
66.38	0.477
66.6	0.128
66.82	0.291
67.04	0.068
67.26	0.099
67.48	0.129
67.7	0.636
67.92	0.618
68.14	0.299
68.36	0.125
68.58	0.615
68.8	0.143
69.02	0.522
69.24	0.523
69.46	0.494
69.68	0.186
69.9	0.02
70.12	0.002
70.34	0.05
70.56	0.071
70.78	0.004
71	0.113
71.22	3.045
71.44	2.346
71.66	0.614
71.88	0.825
72.1	0.459
72.32	1.684
72.54	0.831
72.76	0.127
72.98	0.008
73.2	0.054
73.42	0.177
73.64	1.021
73.86	0.556
74.08	0.108
74.3	0.649
74.52	0.316
74.74	0.22
74.96	0.104
75.18	0.084
75.4	0.494
75.62	0.228
75.84	0.571
76.06	1.191
76.28	0.609
76.5	0.649
76.72	1.109
76.94	0.431
77.16	0.125
77.38	0.214
77.6	0.066
77.82	0.458
78.04	0.476
78.26	0.36
78.48	0.497
78.7	0.634
78.92	1.002
79.14	0.38
79.36	0.724
79.58	0.273
79.8	0.728
80.02	0.421
80.24	0.027
80.46	0.056
80.68	0.118
80.9	0.229
81.12	0.603
81.34	0.305
81.56	0.13
81.78	0.193
82	0.109
82.22	0.117
82.44	0.119
82.66	0.664
82.88	0.756
83.1	0.196
83.32	0.351
83.54	0.503
83.76	0.449
83.98	0.105
84.2	0.178
84.42	0.135
84.64	0.251
84.86	0.257
85.08	0.994
85.3	0.495
85.52	0.134
85.74	0.342
85.96	0.107
86.18	0.251
86.4	0.14
86.62	0.434
86.84	0.19
87.06	0.562
87.28	1.071
87.5	0.389
87.72	0.114
87.94	0.124
88.16	0.04
88.38	0.157
88.6	0.095
88.82	0.05
89.04	0.082
89.26	0.024
89.48	0.022
89.7	0.751
89.92	0.535
