Measurement: Powder, Xray Data XY Processed
Mineral: Benitoite
Rruff sample: R050320
Ideal chemistry: BaTi^4+^Si_3_O_9_
Locality: San Benito County, California, USA
Source: American Museum of Natural History
Description: Blue fragment
Diffraction sample description: Powder
Measured chemistry: Ba_1.00_Ti_1.00_(Si_2.99_Al_0.01_)_Î£=3_O_9_
Cell parameters: a: 6.6400(1) b: 6.6400(1) c: 9.7557(3) alpha: 90 beta: 90 gamma: 120 volume: 372.50(1) crystal system: hexagonal
x	intensity
5	0
5.22	12.3635
5.44	4.31667
5.66	16.9959
5.88	8.47381
6.1	2.35033
6.32	4.99983
6.54	5.97042
6.76	9.87963
6.98	6.53634
7.2	7.96919
7.42	10.4648
7.64	1.06664
7.86	1.24663
8.08	3.5402
8.3	4.65157
8.52	13.9135
8.74	5.18303
8.96	8.2927
9.18	9.3964
9.4	10.7516
9.62	9.24047
9.84	6.35097
10.06	13.5239
10.28	3.8464
10.5	11.1495
10.72	0.368528
10.94	4.48544
11.16	1.69531
11.38	1.83037
11.6	3.10759
11.82	3.06678
12.04	6.07876
12.26	12.1601
12.48	2.82157
12.7	10.906
12.92	9.91111
13.14	6.17303
13.36	3.17012
13.58	7.22701
13.8	11.2741
14.02	11.4544
14.24	13.4285
14.46	7.1954
14.68	9.37814
14.9	5.71911
15.12	11.5642
15.34	46.56
15.56	15.3461
15.78	2.30509
16	1.47208
16.22	11.4535
16.44	6.44474
16.66	3.68989
16.88	3.846
17.1	1.72935
17.32	3.68069
17.54	3.66163
17.76	13.7515
17.98	8.93733
18.2	31.6934
18.42	2.19319
18.64	4.08946
18.86	2.14986
19.08	5.112
19.3	5.08765
19.52	6.18174
19.74	7.18205
19.96	1.21791
20.18	2.42397
20.4	0.477905
20.62	4.70448
20.84	5.55627
21.06	2.44632
21.28	8.88963
21.5	10.804
21.72	1.99917
21.94	8.85846
22.16	1.64489
22.38	3.53416
22.6	1.07807
22.82	0.813399
23.04	5.40778
23.26	6.18493
23.48	5.92967
23.7	12.6607
23.92	1148.5
24.14	45.7061
24.36	6.67178
24.58	2.86076
24.8	2.0793
25.02	0.959258
25.24	3.16923
25.46	0.395265
25.68	6.4844
25.9	8.5581
26.12	12.2415
26.34	6.42793
26.56	9.28372
26.78	24.4506
27	16.4403
27.22	1.37736
27.44	1.55203
27.66	3.43384
27.88	5.48589
28.1	5.62173
28.32	18.8071
28.54	17.0238
28.76	4.90245
28.98	6.87101
29.2	1.65918
29.42	10.9487
29.64	4.92235
29.86	0.777683
30.08	1.53888
30.3	0.307409
30.52	0.197681
30.74	4.88135
30.96	12.6633
31.18	128.394
31.4	3.98789
31.62	0.915149
31.84	8.43784
32.06	2.6203
32.28	4.98208
32.5	63.2833
32.72	278.623
32.94	10.8175
33.16	10.1886
33.38	8.69055
33.6	5.04666
33.82	1.54706
34.04	2.83365
34.26	0.105142
34.48	13.2786
34.7	2.52784
34.92	1.55631
35.14	9.46752
35.36	3.56827
35.58	7.44425
35.8	1.93794
36.02	8.78386
36.24	38.7132
36.46	2.74892
36.68	5.70895
36.9	33.6343
37.12	4.47473
37.34	0.309552
37.56	1.18969
37.78	0.207428
38	1.97581
38.22	9.0019
38.44	0.204413
38.66	3.27285
38.88	1.26512
39.1	2.19842
39.32	1.72295
39.54	9.92102
39.76	1.67474
39.98	9.67018
40.2	31.4596
40.42	1.17775
40.64	6.04745
40.86	2.0637
41.08	2.84874
41.3	10.7668
41.52	153.755
41.74	9.79237
41.96	7.58584
42.18	0.614699
42.4	1.72674
42.62	43.3588
42.84	3.57408
43.06	0.705326
43.28	6.76551
43.5	1.88286
43.72	1.9185
43.94	6.14815
44.16	7.05123
44.38	0.121032
44.6	6.47654
44.82	3.2098
45.04	3.39961
45.26	5.11829
45.48	11.9572
45.7	83.6946
45.92	17.5923
46.14	113.618
46.36	18.2976
46.58	0.262745
46.8	0.460617
47.02	4.88831
47.24	11.3124
47.46	21.4354
47.68	5.66425
47.9	7.69416
48.12	0.402086
48.34	5.45798
48.56	4.31513
48.78	16.4672
49	46.8072
49.22	3.59352
49.44	8.97467
49.66	0.951365
49.88	11.9219
50.1	2.84048
50.32	4.85857
50.54	8.98181
50.76	6.18823
50.98	6.39954
51.2	65.9666
51.42	10.8734
51.64	2.11318
51.86	1.64283
52.08	2.98177
52.3	4.28015
52.52	8.59249
52.74	8.88873
52.96	4.1581
53.18	0.573297
53.4	2.46162
53.62	6.12008
53.84	1.26304
54.06	5.22775
54.28	0.947352
54.5	2.94234
54.72	5.84908
54.94	5.79317
55.16	2.82895
55.38	14.621
55.6	7.18185
55.82	4.96493
56.04	1.77847
56.26	7.63298
56.48	12.4549
56.7	106.274
56.92	14.966
57.14	0.784534
57.36	6.79875
57.58	2.41029
57.8	5.36239
58.02	0.599178
58.24	2.40213
58.46	5.6552
58.68	20.0158
58.9	26.3477
59.12	20.7583
59.34	8.88083
59.56	4.92307
59.78	9.03631
60	0.88112
60.22	5.16906
60.44	5.16435
60.66	3.02674
60.88	5.96108
61.1	148.913
61.32	14.8301
61.54	19.5595
61.76	5.69112
61.98	6.76553
62.2	2.18555
62.42	6.85211
62.64	2.89226
62.86	3.95399
63.08	2.05004
63.3	3.29642
63.52	10.2134
63.74	25.1482
63.96	16.1883
64.18	5.90347
64.4	1.93119
64.62	0.240681
64.84	6.30411
65.06	6.40056
65.28	15.5244
65.5	7.59042
65.72	5.774
65.94	3.77031
66.16	4.18204
66.38	10.3715
66.6	2.40185
66.82	4.23349
67.04	2.07133
67.26	3.02292
67.48	2.96126
67.7	8.83836
67.92	21.7828
68.14	18.4107
68.36	18.4355
68.58	6.27344
68.8	3.1399
69.02	5.52731
69.24	3.57639
69.46	2.34382
69.68	1.71114
69.9	3.96741
70.12	0.085736
70.34	1.08123
70.56	5.08913
70.78	3.84624
71	1.10102
71.22	1.02534
71.44	11.6629
71.66	9.6142
71.88	7.70246
72.1	0.786101
72.32	1.33932
72.54	14.6228
72.76	8.64374
72.98	1.88191
73.2	6.8621
73.42	4.66341
73.64	5.41897
73.86	3.56413
74.08	0.489941
74.3	6.52582
74.52	11.3397
74.74	2.06802
74.96	5.96318
75.18	1.95798
75.4	5.65635
75.62	0.448174
75.84	13.4805
76.06	9.44105
76.28	3.21975
76.5	9.49625
76.72	3.37905
76.94	18.7163
77.16	10.7733
77.38	3.85333
77.6	1.80734
77.82	5.84687
78.04	4.03232
78.26	10.1099
78.48	5.23718
78.7	27.4857
78.92	13.4305
79.14	2.33793
79.36	3.50495
79.58	5.68196
79.8	0.864349
80.02	6.31424
80.24	4.65748
80.46	9.78773
80.68	9.96251
80.9	1.96752
81.12	1.96291
81.34	6.85949
81.56	2.9621
81.78	9.9817
82	4.90528
82.22	4.78093
82.44	3.39986
82.66	6.38187
82.88	1.29781
83.1	19.1162
83.32	8.03272
83.54	6.95315
83.76	1.89892
83.98	6.63267
84.2	7.41156
84.42	0.61202
84.64	4.62643
84.86	6.59523
85.08	6.73179
85.3	6.65891
85.52	5.69956
85.74	2.29111
85.96	7.73226
86.18	1.75201
86.4	5.84274
86.62	7.88722
86.84	0.177228
87.06	7.1479
87.28	17.0154
87.5	0.927804
87.72	5.06389
87.94	8.2115
88.16	10.5816
88.38	3.7497
88.6	1.91916
88.82	2.04541
89.04	4.06609
89.26	3.18094
89.48	4.46599
89.7	8.09183
89.92	4.12591
