Measurement: Powder, Xray Data XY Processed
Mineral: Benstonite
Rruff sample: R050484
Ideal chemistry: Ba_6_Ca_6_Mg(CO_3_)_13_
Locality: Minerva #1 mine, Cave-in-Rock, Hardin County, Illinois, USA
Source: California Institute of Technology
Description: Colorless fragment
Diffraction sample description: Powder
Measured chemistry: lighter phase: (Ba_5.77_Sr_0.23_)_Σ=6_Ca_6.00_(Mg_0.90_Ca_0.10_)_Σ=1_(CO_3_)_13_ ; darker phase: (Ba_5.75_Sr_0.25_)_Σ=6_Ca_6.00_(Mg_0.86_Ca_0.14_)_Σ=1_(CO_3_)_13_ ; C estimated by difference
Cell parameters: a: 18.2712(7) b: 18.2712(7) c: 8.700(1) alpha: 90. beta: 90. gamma: 120. volume: 2515.3(4) crystal system: hexagonal
x	intensity
5	0
5.22	13.713
5.44	9.978
5.66	13.339
5.88	4.862
6.1	6.559
6.32	8.473
6.54	8.243
6.76	4.163
6.98	7.735
7.2	9.25
7.42	6.056
7.64	0.661
7.86	11.257
8.08	0.057
8.3	11.401
8.52	2.3
8.74	9.973
8.96	6.364
9.18	2.392
9.4	10.684
9.62	9.889
9.84	5.895
10.06	9.378
10.28	4.482
10.5	0.405
10.72	3.548
10.94	3.91
11.16	6.167
11.38	3.934
11.6	32.01
11.82	0.237
12.04	8.325
12.26	1.282
12.48	8.469
12.7	9.768
12.92	2.771
13.14	8.804
13.36	0.365
13.58	7.569
13.8	4.762
14.02	11.726
14.24	4.618
14.46	3.897
14.68	1.672
14.9	0.244
15.12	14.569
15.34	6.627
15.56	4.881
15.78	6.922
16	4.25
16.22	2.222
16.44	4.315
16.66	3.457
16.88	19.333
17.1	0.264
17.32	4.49
17.54	10.564
17.76	0.698
17.98	23.607
18.2	3.62
18.42	7.391
18.64	2.581
18.86	2.686
19.08	5.446
19.3	5.396
19.52	12.434
19.74	6.283
19.96	7.11
20.18	0.012
20.4	6.99
20.62	4.208
20.84	1.264
21.06	9.068
21.28	35.985
21.5	5.991
21.72	10.026
21.94	1.977
22.16	1.856
22.38	7.087
22.6	31.269
22.82	40.56
23.04	7.413
23.26	11.463
23.48	4.471
23.7	1.54
23.92	3.393
24.14	0.714
24.36	0.719
24.58	7.235
24.8	24.928
25.02	2.608
25.24	4.622
25.46	0.649
25.68	6.429
25.9	7.455
26.12	5.841
26.34	7.276
26.56	14.42
26.78	5.45
27	0.422
27.22	7.528
27.44	3.397
27.66	5.898
27.88	4.682
28.1	4.308
28.32	2.044
28.54	8.602
28.76	55.169
28.98	259.168
29.2	13.309
29.42	5.47
29.64	2.614
29.86	0.867
30.08	7.179
30.3	0.207
30.52	9.072
30.74	2.294
30.96	1.559
31.18	0.742
31.4	0.704
31.62	6.914
31.84	3.015
32.06	1.254
32.28	7.361
32.5	11.606
32.72	0.758
32.94	4.795
33.16	8.912
33.38	5.149
33.6	5.154
33.82	8.937
34.04	9.527
34.26	0.106
34.48	1.307
34.7	3.311
34.92	6.779
35.14	15.335
35.36	52.033
35.58	46.65
35.8	8.276
36.02	6.293
36.24	8.509
36.46	6.941
36.68	22.234
36.9	4.571
37.12	2.871
37.34	0.646
37.56	6.348
37.78	7.611
38	2.134
38.22	8.329
38.44	0.38
38.66	8.831
38.88	8.694
39.1	10.804
39.32	6.572
39.54	0.702
39.76	9.023
39.98	7.74
40.2	5.41
40.42	23.891
40.64	21.894
40.86	11.683
41.08	3.943
41.3	17.624
41.52	1.846
41.74	2.957
41.96	1.924
42.18	2.852
42.4	42.109
42.62	31.621
42.84	12.805
43.06	15.744
43.28	13.788
43.5	2.091
43.72	0.872
43.94	8.981
44.16	7.002
44.38	11.943
44.6	8.844
44.82	3.786
45.04	0.412
45.26	4.605
45.48	10.236
45.7	0.849
45.92	2.132
46.14	3.907
46.36	35.67
46.58	33.323
46.8	27.081
47.02	6.897
47.24	2.38
47.46	15.366
47.68	51.527
47.9	17.69
48.12	9.074
48.34	8.118
48.56	3.655
48.78	8.164
49	10.804
49.22	8.548
49.44	6.11
49.66	0.247
49.88	10.222
50.1	0.629
50.32	2.031
50.54	2.477
50.76	1.297
50.98	3.506
51.2	3.728
51.42	1.762
51.64	2.677
51.86	3.712
52.08	5.587
52.3	4.534
52.52	2.8
52.74	2.966
52.96	6.756
53.18	8.707
53.4	0.793
53.62	3.893
53.84	4.941
54.06	2.902
54.28	3.288
54.5	4.342
54.72	0.82
54.94	3.822
55.16	1.667
55.38	6.574
55.6	2.452
55.82	5.26
56.04	3.043
56.26	10.09
56.48	42.149
56.7	14.163
56.92	7.122
57.14	3.219
57.36	6.395
57.58	2.676
57.8	2.768
58.02	7.856
58.24	2.908
58.46	4.863
58.68	1.284
58.9	7.43
59.12	6.231
59.34	2.226
59.56	25.233
59.78	28.417
60	8.265
60.22	0.408
60.44	0.618
60.66	1.421
60.88	2.478
61.1	3.695
61.32	1.116
61.54	8.778
61.76	7.878
61.98	2.853
62.2	6.63
62.42	3.525
62.64	9.312
62.86	2.325
63.08	1.433
63.3	5.541
63.52	10.395
63.74	2.266
63.96	2.568
64.18	1.641
64.4	5.584
64.62	9.652
64.84	5.762
65.06	2.794
65.28	2.27
65.5	2.658
65.72	4.649
65.94	1.586
66.16	8.724
66.38	7.55
66.6	7.495
66.82	4.487
67.04	5.287
67.26	4.487
67.48	2.834
67.7	3.936
67.92	7.92
68.14	8.938
68.36	2.933
68.58	1.285
68.8	5.7
69.02	2.661
69.24	2.707
69.46	7.614
69.68	11.587
69.9	6.392
70.12	6.368
70.34	1.252
70.56	11.051
70.78	0.996
71	1.935
71.22	4.855
71.44	1.74
71.66	10.735
71.88	3.041
72.1	12.78
72.32	12.025
72.54	1.182
72.76	0.362
72.98	2.58
73.2	0.54
73.42	0.731
73.64	1.713
73.86	2.673
74.08	2.527
74.3	3.201
74.52	3.092
74.74	4.883
74.96	21.689
75.18	10.783
75.4	5.02
75.62	7.033
75.84	8.052
76.06	3.336
76.28	0.429
76.5	0.081
76.72	3.381
76.94	9.644
77.16	3.967
77.38	2.036
77.6	5.307
77.82	3.178
78.04	4.213
78.26	2.184
78.48	2.987
78.7	2.856
78.92	1.47
79.14	3.279
79.36	11.026
79.58	8.639
79.8	4.591
80.02	3.391
80.24	3.251
80.46	10.387
80.68	8.436
80.9	8.472
81.12	4.454
81.34	0.477
81.56	3.481
81.78	3.665
82	4.895
82.22	13.792
82.44	2.898
82.66	3.139
82.88	3.088
83.1	8.151
83.32	5.416
83.54	1.679
83.76	1.924
83.98	5.028
84.2	0.92
84.42	0.023
84.64	1.778
84.86	0.094
85.08	11.104
85.3	6.098
85.52	2.254
85.74	1.927
85.96	1.9
86.18	4.736
86.4	6.675
86.62	5.728
86.84	0.689
87.06	3.692
87.28	5.719
87.5	1.787
87.72	1.833
87.94	4.661
88.16	7.774
88.38	6.179
88.6	6.353
88.82	7.347
89.04	0.449
89.26	0.717
89.48	3.987
89.7	0.217
89.92	3.919
