Measurement: Powder, Xray Data XY Processed
Mineral: Beryllonite
Rruff sample: R070249
Ideal chemistry: NaBePO_4_
Locality: Melrose Farm Beryllonite prospects (McAllister prospects),  Stoneham, Oxford County, Maine, USA
Source: Michael Scott
Description: Two colorless single crystal fragments
Diffraction sample description: Powder
Measured chemistry: Na_1.00_Be_1.00_P_1.00_O_4_; Be estimated by difference
Cell parameters: a: 8.1355(2) b: 7.8010(2) c: 14.2018(7) alpha: 90 beta: 90.028(7) gamma: 90 volume: 901.32(5) crystal system: monoclinic
x	intensity
5	0
5.22	14.8525
5.44	10.5116
5.66	14.325
5.88	29.0206
6.1	9.6842
6.32	16.7051
6.54	7.93093
6.76	8.80425
6.98	14.6428
7.2	17.9827
7.42	12.5434
7.64	13.7721
7.86	13.2081
8.08	0.540392
8.3	7.01082
8.52	8.34126
8.74	1.72965
8.96	5.7881
9.18	19.9256
9.4	4.28488
9.62	16.8203
9.84	10.1783
10.06	11.598
10.28	8.98236
10.5	6.20901
10.72	10.4667
10.94	6.5441
11.16	1.60125
11.38	3.30386
11.6	0.004686
11.82	2.64308
12.04	9.44533
12.26	3.74385
12.48	3.61991
12.7	5.37801
12.92	12.5432
13.14	4.25787
13.36	4.47572
13.58	6.39385
13.8	0.866929
14.02	9.6265
14.24	9.63287
14.46	2.19325
14.68	0.890462
14.9	4.80649
15.12	0.573453
15.34	13.5796
15.56	1.74011
15.78	39.4631
16	3.45002
16.22	7.86648
16.44	9.32962
16.66	0.763607
16.88	7.38359
17.1	3.43639
17.32	5.6177
17.54	0.684222
17.76	0.477386
17.98	1.27734
18.2	14.0788
18.42	7.85353
18.64	6.87081
18.86	7.11057
19.08	1.91069
19.3	11.5076
19.52	2.35033
19.74	7.1076
19.96	15.3019
20.18	225.515
20.4	6.49533
20.62	5.21719
20.84	5.81411
21.06	9.47085
21.28	5.24375
21.5	2.91838
21.72	182.602
21.94	19.0797
22.16	23.7969
22.38	0.306072
22.6	17.2793
22.82	1236.13
23.04	13.308
23.26	8.12917
23.48	0.042572
23.7	10.7056
23.92	11.5201
24.14	0.509377
24.36	22.2637
24.58	998.059
24.8	41.2664
25.02	8.19319
25.24	36.2514
25.46	250.449
25.68	10.3452
25.9	15.7424
26.12	11.2901
26.34	0.613033
26.56	5.97707
26.78	5.30057
27	11.4064
27.22	8.63152
27.44	3.56686
27.66	28.2569
27.88	5.89091
28.1	8.17445
28.32	11.1134
28.54	22.6571
28.76	9.18675
28.98	4.86949
29.2	2.10541
29.42	0.175898
29.64	4.81846
29.86	13.5083
30.08	8.82717
30.3	0.800581
30.52	0.303999
30.74	7.61572
30.96	1.26245
31.18	58.0224
31.4	14.2183
31.62	110.011
31.84	295.253
32.06	14.4981
32.28	2.55187
32.5	13.7534
32.72	11.6824
32.94	12.285
33.16	7.58816
33.38	67.3368
33.6	90.1641
33.82	4.12625
34.04	11.0614
34.26	32.361
34.48	11.224
34.7	0.569366
34.92	9.70195
35.14	21.9532
35.36	0.831459
35.58	9.87564
35.8	13.8151
36.02	33.3756
36.24	2.56662
36.46	5.80106
36.68	4.09431
36.9	1.94616
37.12	5.70277
37.34	10.5347
37.56	8.50074
37.78	7.64786
38	133.712
38.22	204.612
38.44	37.9811
38.66	10.1705
38.88	7.33716
39.1	5.32937
39.32	3.54661
39.54	47.242
39.76	130.495
39.98	297.499
40.2	19.0487
40.42	11.8427
40.64	6.21738
40.86	28.8675
41.08	35.6893
41.3	35.7202
41.52	2.7111
41.74	42.1681
41.96	1.66777
42.18	8.47318
42.4	5.3616
42.62	9.3435
42.84	10.7622
43.06	26.1308
43.28	41.5681
43.5	17.7839
43.72	3.90653
43.94	8.03186
44.16	4.59053
44.38	35.7801
44.6	44.1792
44.82	1.51719
45.04	6.72807
45.26	12.4907
45.48	7.27716
45.7	5.50918
45.92	16.2092
46.14	21.0632
46.36	33.8768
46.58	209.284
46.8	12.179
47.02	8.1404
47.24	0.915533
47.46	8.80506
47.68	6.64276
47.9	12.2324
48.12	14.1863
48.34	15.3403
48.56	11.3817
48.78	6.41387
49	8.6572
49.22	1.20161
49.44	19.8289
49.66	4.92998
49.88	0.292184
50.1	7.39813
50.32	36.6364
50.54	19.382
50.76	6.44022
50.98	8.58781
51.2	0.344033
51.42	0.364393
51.64	10.4363
51.86	4.827
52.08	0.700481
52.3	7.04803
52.52	30.1708
52.74	15.373
52.96	3.39596
53.18	6.56904
53.4	2.74224
53.62	12.9179
53.84	5.06102
54.06	1.25207
54.28	18.1584
54.5	8.2337
54.72	14.0112
54.94	1.69364
55.16	10.0137
55.38	5.25485
55.6	4.10212
55.82	2.96919
56.04	3.12816
56.26	4.12172
56.48	11.5346
56.7	3.47806
56.92	15.8485
57.14	4.41516
57.36	5.50056
57.58	13.729
57.8	5.53363
58.02	15.4812
58.24	37.3646
58.46	9.30489
58.68	11.1877
58.9	12.1256
59.12	3.89854
59.34	3.17901
59.56	10.7639
59.78	11.7968
60	5.81531
60.22	4.51419
60.44	0.188725
60.66	1.03623
60.88	6.85427
61.1	23.6442
61.32	12.7384
61.54	18.8025
61.76	40.5812
61.98	7.5647
62.2	14.6365
62.42	7.3684
62.64	5.54783
62.86	3.30056
63.08	4.70583
63.3	4.7379
63.52	0.211431
63.74	3.79431
63.96	10.5865
64.18	4.52805
64.4	26.0845
64.62	10.3855
64.84	18.5985
65.06	19.712
65.28	21.9119
65.5	3.14705
65.72	0.705795
65.94	4.62975
66.16	10.6749
66.38	33.7482
66.6	16.8315
66.82	3.10846
67.04	7.85801
67.26	11.5372
67.48	0.659508
67.7	0.547727
67.92	6.46769
68.14	12.6013
68.36	3.39813
68.58	2.43688
68.8	46.5361
69.02	6.83817
69.24	35.3162
69.46	18.3115
69.68	6.14495
69.9	9.11501
70.12	6.38722
70.34	5.70311
70.56	6.9115
70.78	18.6782
71	7.14195
71.22	9.26378
71.44	11.7381
71.66	0.582497
71.88	6.65168
72.1	0.602503
72.32	12.5374
72.54	13.4079
72.76	11.1751
72.98	17.8486
73.2	13.5875
73.42	9.38954
73.64	12.9484
73.86	3.81169
74.08	4.72614
74.3	0.066129
74.52	6.49198
74.74	7.78779
74.96	3.19428
75.18	11.4994
75.4	5.87667
75.62	15.6979
75.84	11.8028
76.06	5.85824
76.28	4.96117
76.5	4.11453
76.72	7.02363
76.94	5.23558
77.16	10.1765
77.38	14.118
77.6	4.284
77.82	6.41446
78.04	9.49854
78.26	8.59374
78.48	0.697583
78.7	0.104988
78.92	7.83069
79.14	10.0468
79.36	7.83866
79.58	1.03452
79.8	9.09491
80.02	6.97942
80.24	1.32278
80.46	4.51295
80.68	0.175999
80.9	0.745329
81.12	15.1403
81.34	7.89266
81.56	6.33644
81.78	0.200661
82	13.9232
82.22	8.05428
82.44	11.8553
82.66	6.04894
82.88	11.3249
83.1	2.66559
83.32	8.54794
83.54	19.3773
83.76	6.74553
83.98	3.91977
84.2	8.0339
84.42	9.89386
84.64	4.39154
84.86	2.67355
85.08	8.32187
85.3	7.78942
85.52	28.0366
85.74	6.64427
85.96	0.821763
86.18	6.61562
86.4	37.1182
86.62	13.6951
86.84	11.5384
87.06	3.85376
87.28	7.55676
87.5	1.45997
87.72	8.8512
87.94	24.2894
88.16	8.86785
88.38	1.24974
88.6	1.73626
88.82	3.16208
89.04	1.60294
89.26	8.7705
89.48	10.1769
89.7	14.7683
89.92	2.53382
