Measurement: Powder, Xray Data XY Processed
Mineral: Beryl
Rruff sample: R060943
Ideal chemistry: Be_3_Al_2_Si_6_O_18_
Locality: Xinjiang, China
Source: Lawrence W. Snee
Description: Green hexagonal prisms, variety emerald
Diffraction sample description: Powder
Measured chemistry: (Be_2.96_Li_0.04_)_Σ=3_(Al_1.64_Mg_0.21_V^3+^_0.06_Fe^3+^_0.04_Sc^3+^_0.03_Cr^3+^_0.02_)_Σ=2_Si_6.00_O_18_·Na_0.25_
Cell parameters: a: 9.2484(1) b: 9.2484(1) c: 9.1945(2) alpha: 90 beta: 90 gamma: 120 volume: 681.06(2) crystal system: hexagonal
x	intensity
5	0
5.22	7.35871
5.44	8.74517
5.66	10.9813
5.88	6.53689
6.1	4.2859
6.32	5.62019
6.54	5.51335
6.76	5.56954
6.98	9.68208
7.2	18.2455
7.42	5.62818
7.64	14.3347
7.86	8.16264
8.08	6.58526
8.3	17.06
8.52	6.42246
8.74	4.66564
8.96	5.65733
9.18	10.1189
9.4	9.42405
9.62	9.12906
9.84	8.64993
10.06	6.5978
10.28	8.08295
10.5	7.03033
10.72	5.97744
10.94	76.7415
11.16	61.0935
11.38	17.0447
11.6	0.934413
11.82	6.10216
12.04	6.25685
12.26	7.66486
12.48	1.85534
12.7	2.05432
12.92	8.2777
13.14	5.49531
13.36	0.322065
13.58	5.87905
13.8	2.25619
14.02	6.9395
14.24	5.00788
14.46	4.35824
14.68	1.25561
14.9	9.3184
15.12	4.36287
15.34	7.5004
15.56	2.39317
15.78	10.4521
16	4.62248
16.22	5.50559
16.44	2.50598
16.66	5.42322
16.88	2.21505
17.1	0.415442
17.32	7.26623
17.54	8.27552
17.76	5.18948
17.98	0.03675
18.2	2.44484
18.42	8.99781
18.64	2.89598
18.86	13.8053
19.08	4.98534
19.3	212.202
19.52	5.12813
19.74	3.51773
19.96	3.63924
20.18	3.61109
20.4	11.6463
20.62	7.76425
20.84	2.92507
21.06	6.78957
21.28	3.63613
21.5	4.04161
21.72	7.73666
21.94	3.38706
22.16	23.8558
22.38	85.7757
22.6	5.55865
22.82	0.953827
23.04	3.2191
23.26	5.17811
23.48	4.5797
23.7	5.72895
23.92	3.00002
24.14	7.01753
24.36	3.22562
24.58	4.15036
24.8	8.34093
25.02	3.08253
25.24	16.3527
25.46	3.7578
25.68	16.0226
25.9	11.6496
26.12	9.17721
26.34	9.51687
26.56	4.96453
26.78	1.39822
27	1.02336
27.22	19.7347
27.44	536.799
27.66	11.0408
27.88	2.31487
28.1	5.40932
28.32	17.3095
28.54	0.853166
28.76	10.9949
28.98	4.73751
29.2	2.24362
29.42	16.1441
29.64	99.7692
29.86	17.1011
30.08	14.3693
30.3	3.67798
30.52	3.25535
30.74	6.45612
30.96	36.7684
31.18	488.888
31.4	4.53892
31.62	13.5905
31.84	4.73692
32.06	5.12001
32.28	5.55803
32.5	5.91729
32.72	14.5185
32.94	6.95673
33.16	6.06865
33.38	11.0822
33.6	14.4194
33.82	13.2938
34.04	6.36178
34.26	7.46525
34.48	12.4534
34.7	5.5553
34.92	4.85696
35.14	16.6847
35.36	15.7716
35.58	76.8293
35.8	6.98263
36.02	9.467
36.24	1.55354
36.46	0.211808
36.68	4.98483
36.9	6.16009
37.12	4.87229
37.34	13.782
37.56	2.83447
37.78	11.8346
38	6.81259
38.22	3.19074
38.44	6.18158
38.66	9.33923
38.88	9.8591
39.1	10.8344
39.32	18.5529
39.54	5.09083
39.76	10.9887
39.98	1.90121
40.2	8.11312
40.42	2.17563
40.64	18.0429
40.86	17.816
41.08	16.59
41.3	2.97534
41.52	1.87659
41.74	12.0844
41.96	45.0266
42.18	10.4738
42.4	5.02955
42.62	3.18499
42.84	3.05434
43.06	8.1573
43.28	12.5994
43.5	24.7626
43.72	5.97881
43.94	9.0402
44.16	13.9655
44.38	3.12001
44.6	4.06389
44.82	0.835692
45.04	5.45083
45.26	23.7163
45.48	63.9162
45.7	10.2903
45.92	6.1753
46.14	1.68426
46.36	1.88348
46.58	4.1931
46.8	2.74394
47.02	6.68614
47.24	5.88619
47.46	3.87184
47.68	10.263
47.9	8.60397
48.12	9.18418
48.34	3.22667
48.56	7.43874
48.78	10.0783
49	13.2379
49.22	8.96295
49.44	10.1128
49.66	9.07896
49.88	0.083578
50.1	5.05487
50.32	8.08353
50.54	7.2711
50.76	61.5217
50.98	14.2588
51.2	7.16074
51.42	4.69997
51.64	2.56578
51.86	5.5142
52.08	8.40553
52.3	41.1286
52.52	99.833
52.74	6.65068
52.96	1.36664
53.18	4.7054
53.4	14.9658
53.62	13.1639
53.84	10.8033
54.06	9.20657
54.28	3.33947
54.5	12.0105
54.72	1.18499
54.94	5.37177
55.16	7.31937
55.38	7.09823
55.6	5.96852
55.82	5.78236
56.04	4.1738
56.26	16.7564
56.48	35.5658
56.7	13.2654
56.92	2.31302
57.14	7.32812
57.36	0.298554
57.58	10.2977
57.8	9.33998
58.02	8.74827
58.24	2.84016
58.46	9.59467
58.68	16.7374
58.9	20.0372
59.12	0.996636
59.34	10.6131
59.56	0.474471
59.78	3.49191
60	4.3648
60.22	4.94005
60.44	1.11904
60.66	3.85504
60.88	5.53532
61.1	14.3464
61.32	12.8036
61.54	4.72221
61.76	7.83781
61.98	0.631668
62.2	4.45141
62.42	14.6825
62.64	2.14394
62.86	7.74042
63.08	7.65585
63.3	5.61571
63.52	5.87736
63.74	0.505396
63.96	25.725
64.18	19.7895
64.4	5.86097
64.62	0.98945
64.84	51.115
65.06	23.3409
65.28	10.5049
65.5	11.6563
65.72	5.50922
65.94	9.70387
66.16	11.885
66.38	2.92067
66.6	7.7264
66.82	1.56137
67.04	4.73469
67.26	6.66022
67.48	11.5301
67.7	3.54017
67.92	10.7343
68.14	3.99445
68.36	6.09086
68.58	13.1081
68.8	24.5584
69.02	12.525
69.24	6.56167
69.46	3.44443
69.68	1.59645
69.9	10.6475
70.12	1.63435
70.34	2.94717
70.56	7.91264
70.78	3.89757
71	0.854905
71.22	5.51513
71.44	0.550442
71.66	7.46418
71.88	3.44659
72.1	5.74028
72.32	10.7326
72.54	1.85781
72.76	8.0515
72.98	7.65685
73.2	5.16357
73.42	4.79455
73.64	7.42317
73.86	43.0047
74.08	25.6707
74.3	6.3985
74.52	2.08155
74.74	5.06669
74.96	19.198
75.18	10.6866
75.4	11.5067
75.62	6.13607
75.84	6.54811
76.06	2.92657
76.28	4.27948
76.5	1.73401
76.72	0.097079
76.94	4.19433
77.16	9.882
77.38	5.76094
77.6	5.39636
77.82	2.08777
78.04	4.65304
78.26	6.44714
78.48	9.2807
78.7	2.58271
78.92	8.28507
79.14	36.1048
79.36	18.014
79.58	11.1543
79.8	0.422791
80.02	2.51644
80.24	4.4985
80.46	1.12403
80.68	2.34056
80.9	4.54323
81.12	6.46351
81.34	13.3478
81.56	1.7976
81.78	10.9929
82	10.001
82.22	2.97837
82.44	4.08726
82.66	6.07303
82.88	2.589
83.1	1.43206
83.32	10.4114
83.54	9.34371
83.76	16.1933
83.98	4.75156
84.2	16.5135
84.42	1.38802
84.64	0.503803
84.86	9.50649
85.08	9.47562
85.3	8.65942
85.52	8.81726
85.74	2.85891
85.96	7.84109
86.18	5.84924
86.4	3.95103
86.62	5.80882
86.84	9.84097
87.06	1.37546
87.28	1.58372
87.5	5.68295
87.72	5.54224
87.94	7.47927
88.16	13.9306
88.38	7.17835
88.6	4.47887
88.82	9.72477
89.04	1.04134
89.26	7.43012
89.48	1.13506
89.7	2.93863
89.92	4.81078
