Measurement: Powder, Xray Data XY Processed
Mineral: Beryl
Rruff sample: R050368
Ideal chemistry: Be_3_Al_2_Si_6_O_18_
Locality: Wah Wah Mountains, Utah, USA
Source: Eugene Schlepp
Description: Red-violet hexagonal prism
Diffraction sample description: Powder
Measured chemistry: (Be_0.99_Li_0.01_)_3_(Al_0.95_Fe^3+^_0.05_)_2_Si_6.00_O_18_Î‡K_0.02_Na_0.01_
Cell parameters: a: 9.2313(2) b: 9.2313(2) c: 9.1937(4) alpha: 90. beta: 90. gamma: 120. volume: 678.50(3) crystal system: hexagonal
x	intensity
5	0
5.22	9.60783
5.44	4.46861
5.66	9.05656
5.88	11.661
6.1	11.6889
6.32	14.047
6.54	8.94298
6.76	7.0992
6.98	16.7269
7.2	11.6317
7.42	1.27852
7.64	4.34249
7.86	11.9197
8.08	9.3145
8.3	17.142
8.52	8.56319
8.74	7.25894
8.96	6.83669
9.18	20.6344
9.4	0.866817
9.62	12.496
9.84	6.7346
10.06	26.0745
10.28	20.4198
10.5	12.0533
10.72	25.2722
10.94	150.24
11.16	164.771
11.38	21.87
11.6	7.83844
11.82	4.55143
12.04	3.63727
12.26	8.3286
12.48	7.92936
12.7	5.67403
12.92	7.43053
13.14	0.023584
13.36	7.1639
13.58	5.53822
13.8	11.9591
14.02	9.32279
14.24	9.45857
14.46	0.945095
14.68	13.0156
14.9	2.83442
15.12	15.1069
15.34	6.23755
15.56	2.66554
15.78	5.9359
16	2.46597
16.22	5.7375
16.44	16.6454
16.66	15.9437
16.88	0.953398
17.1	2.21631
17.32	4.24666
17.54	10.3115
17.76	7.08128
17.98	7.71061
18.2	3.52854
18.42	9.75163
18.64	7.89668
18.86	14.4947
19.08	14.3169
19.3	413.483
19.52	15.3422
19.74	4.89305
19.96	7.08372
20.18	9.06565
20.4	4.25947
20.62	12.1482
20.84	7.94404
21.06	12.9623
21.28	10.4199
21.5	21.1887
21.72	10.8734
21.94	12.5069
22.16	39.9123
22.38	164.758
22.6	16.6806
22.82	12.6583
23.04	6.86608
23.26	0.626301
23.48	6.71666
23.7	22.2191
23.92	1.31221
24.14	2.47511
24.36	4.83974
24.58	10.6235
24.8	4.31977
25.02	6.26242
25.24	12.1876
25.46	11.9772
25.68	12.2774
25.9	0.814177
26.12	6.14094
26.34	1.18898
26.56	3.05544
26.78	10.0529
27	13.8816
27.22	36.2167
27.44	634.998
27.66	31.3738
27.88	4.32442
28.1	24.563
28.32	8.57903
28.54	12.56
28.76	10.7648
28.98	0.256571
29.2	5.47855
29.42	8.54505
29.64	143.703
29.86	5.42479
30.08	18.4906
30.3	5.0399
30.52	0.415316
30.74	16.6476
30.96	27.7227
31.18	554.618
31.4	38.7114
31.62	1.75289
31.84	6.39773
32.06	2.99911
32.28	7.40834
32.5	6.99097
32.72	2.68713
32.94	11.2947
33.16	10.8631
33.38	8.23814
33.6	30.7078
33.82	16.0274
34.04	6.11459
34.26	6.65393
34.48	12.5867
34.7	13.773
34.92	2.06279
35.14	18.9686
35.36	5.13576
35.58	112.218
35.8	8.58361
36.02	3.85331
36.24	10.3217
36.46	5.80802
36.68	6.05562
36.9	2.2896
37.12	12.728
37.34	14.7345
37.56	3.23255
37.78	15.0085
38	9.07505
38.22	5.95622
38.44	12.7576
38.66	14.7096
38.88	9.54569
39.1	6.80722
39.32	29.15
39.54	8.06269
39.76	8.05293
39.98	11.4094
40.2	13.4511
40.42	1.92253
40.64	15.8806
40.86	12.754
41.08	7.17953
41.3	5.20678
41.52	2.11284
41.74	8.54769
41.96	49.6327
42.18	18.3088
42.4	12.8745
42.62	10.2665
42.84	0.211565
43.06	19.7845
43.28	3.12876
43.5	13.9762
43.72	2.36333
43.94	15.5581
44.16	4.62933
44.38	14.4669
44.6	5.70691
44.82	11.14
45.04	1.63315
45.26	25.7763
45.48	111.001
45.7	8.60854
45.92	6.3219
46.14	13.2884
46.36	4.48929
46.58	3.72986
46.8	10.8579
47.02	1.74813
47.24	1.26983
47.46	13.1577
47.68	13.1562
47.9	12.5062
48.12	8.43942
48.34	4.30458
48.56	16.9
48.78	5.72292
49	10.7017
49.22	6.51278
49.44	5.26582
49.66	31.8483
49.88	1.51331
50.1	3.60505
50.32	6.35934
50.54	9.22139
50.76	47.0418
50.98	25.9764
51.2	10.9311
51.42	0.542618
51.64	14.3889
51.86	9.09417
52.08	13.2968
52.3	13.3524
52.52	90.0282
52.74	28.2384
52.96	3.35608
53.18	10.0273
53.4	50.8084
53.62	16.3584
53.84	8.0749
54.06	0.472057
54.28	8.88203
54.5	14.4542
54.72	6.05595
54.94	9.14138
55.16	1.85202
55.38	2.68931
55.6	17.1555
55.82	2.37493
56.04	12.027
56.26	11.5133
56.48	86.1856
56.7	11.5831
56.92	11.9793
57.14	6.18211
57.36	0.470249
57.58	27.5635
57.8	31.7517
58.02	5.05757
58.24	5.89279
58.46	8.59817
58.68	24.6189
58.9	23.9341
59.12	10.0923
59.34	11.0143
59.56	6.60749
59.78	0.251198
60	10.1545
60.22	1.08134
60.44	21.1037
60.66	10.456
60.88	2.25935
61.1	83.6489
61.32	27.8626
61.54	2.33627
61.76	7.77428
61.98	6.85719
62.2	12.166
62.42	2.28991
62.64	7.3226
62.86	0.083054
63.08	0.492319
63.3	3.44875
63.52	0.410276
63.74	31.1699
63.96	27.5185
64.18	11.267
64.4	9.49951
64.62	4.33292
64.84	10.3547
65.06	25.8935
65.28	22.1341
65.5	9.68111
65.72	2.61522
65.94	11.8278
66.16	10.2935
66.38	9.50225
66.6	14.2479
66.82	5.03401
67.04	5.18659
67.26	5.00916
67.48	3.90629
67.7	9.94525
67.92	3.71125
68.14	8.69894
68.36	15.6495
68.58	32.1421
68.8	9.59719
69.02	9.40074
69.24	3.94769
69.46	3.22221
69.68	6.60027
69.9	11.7714
70.12	8.87738
70.34	11.9551
70.56	7.17524
70.78	8.03612
71	3.49511
71.22	6.44122
71.44	0.329275
71.66	2.11494
71.88	12.7515
72.1	8.69165
72.32	2.18501
72.54	8.18631
72.76	9.97013
72.98	10.5166
73.2	3.26582
73.42	9.9278
73.64	8.48516
73.86	9.00074
74.08	23.8091
74.3	26.5783
74.52	6.62658
74.74	0.406111
74.96	21.8496
75.18	16.3311
75.4	19.0541
75.62	4.52902
75.84	13.3633
76.06	1.70411
76.28	6.16782
76.5	1.89943
76.72	3.14438
76.94	14.2929
77.16	11.817
77.38	5.6802
77.6	9.77153
77.82	5.33562
78.04	0.830791
78.26	8.61948
78.48	15.4771
78.7	1.29432
78.92	14.8734
79.14	5.18549
79.36	18.1909
79.58	14.371
79.8	8.51294
80.02	8.32086
80.24	0.51329
80.46	4.72575
80.68	2.05292
80.9	5.25838
81.12	8.65477
81.34	11.7292
81.56	10.9471
81.78	3.27429
82	13.3897
82.22	12.2566
82.44	4.67147
82.66	5.8161
82.88	3.71593
83.1	4.51339
83.32	1.35632
83.54	9.18354
83.76	8.9871
83.98	9.65385
84.2	21.3325
84.42	7.2945
84.64	2.43733
84.86	11.0004
85.08	9.9781
85.3	0.097125
85.52	5.38209
85.74	0.50548
85.96	0.575654
86.18	1.59952
86.4	0.90392
86.62	3.21092
86.84	9.16177
87.06	21.3674
87.28	15.4798
87.5	8.55812
87.72	6.68657
87.94	3.64349
88.16	3.0317
88.38	9.3376
88.6	7.88522
88.82	9.06094
89.04	4.26814
89.26	6.58117
89.48	8.25707
89.7	2.032
89.92	6.10582
