Measurement: Powder, Xray Data XY Processed
Mineral: Betekhtinite
Rruff sample: R070087
Ideal chemistry: (Cu,Fe)_21_Pb_2_S_15_
Locality: Dzhezkazgan deposit, central Kazakhstan
Source: Michael Scott
Description: Aggregate of black bladed to prismatic crystals associated with quartz
Diffraction sample description: Powder
Measured chemistry: (Cu_20.15_Fe_0.85_)_Σ=21_(Pb_1.80_Ag_0.11_Fe_0.09_)_Σ=2_S_15.00_
Cell parameters: a: 3.9037(1) b: 14.8002(6) c: 22.729(1) alpha: 90 beta: 90 gamma: 90 volume: 1313.19(6) crystal system: orthorhombic
x	intensity
5	0
5.22	9.97205
5.44	22.7487
5.66	14.4894
5.88	18.4628
6.1	11.1018
6.32	17.389
6.54	29.3395
6.76	14.9071
6.98	6.35642
7.2	19.8892
7.42	9.15842
7.64	19.1808
7.86	15.2147
8.08	8.01479
8.3	9.92123
8.52	3.31245
8.74	0.280861
8.96	12.5457
9.18	12.6069
9.4	9.32606
9.62	11.8473
9.84	14.6301
10.06	4.97088
10.28	12.1935
10.5	12.952
10.72	6.55023
10.94	19.1009
11.16	11.6637
11.38	6.7764
11.6	6.66589
11.82	18.1428
12.04	27.1844
12.26	12.5125
12.48	11.4279
12.7	6.3064
12.92	5.24162
13.14	13.9933
13.36	15.3159
13.58	9.29482
13.8	7.1213
14.02	4.8789
14.24	11.2342
14.46	16.3382
14.68	0.728603
14.9	20.14
15.12	6.63772
15.34	1.39703
15.56	44.2824
15.78	16.3424
16	13.2217
16.22	5.83289
16.44	11.8642
16.66	1.06203
16.88	20.035
17.1	9.80994
17.32	17.5653
17.54	7.24872
17.76	16.4342
17.98	13.611
18.2	20.3981
18.42	108.865
18.64	5.64227
18.86	13.5194
19.08	10.8019
19.3	7.47549
19.52	4.4435
19.74	25.569
19.96	22.1986
20.18	19.65
20.4	35.7957
20.62	15.2181
20.84	20.0533
21.06	14.6455
21.28	0.744843
21.5	38.251
21.72	11.895
21.94	15.7701
22.16	6.50205
22.38	12.047
22.6	4.00536
22.82	9.85977
23.04	32.209
23.26	11.1394
23.48	30.2405
23.7	16.7037
23.92	0.042202
24.14	23.0692
24.36	6.04453
24.58	3.93134
24.8	4.46688
25.02	0.177311
25.24	6.76349
25.46	22.2169
25.68	37.8599
25.9	23.7892
26.12	16.0715
26.34	24.1577
26.56	23.5381
26.78	21.6698
27	0.485229
27.22	0.648689
27.44	13.2551
27.66	2.90203
27.88	13.201
28.1	107.265
28.32	41.2078
28.54	33.227
28.76	181.873
28.98	16.1864
29.2	53.2595
29.42	5.22502
29.64	16.6883
29.86	17.5781
30.08	79.0206
30.3	230.772
30.52	17.9728
30.74	2.35458
30.96	4.63016
31.18	7.48195
31.4	3.61408
31.62	15.7944
31.84	35.8164
32.06	22.1542
32.28	14.877
32.5	19.0535
32.72	3.19464
32.94	7.40261
33.16	61.9335
33.38	41.0394
33.6	33.5076
33.82	33.5193
34.04	8.31673
34.26	8.89607
34.48	19.3547
34.7	2.1587
34.92	15.2551
35.14	14.3518
35.36	27.2516
35.58	52.7168
35.8	36.8392
36.02	59.618
36.24	28.1102
36.46	16.5543
36.68	17.2711
36.9	15.0686
37.12	1.79636
37.34	66.2112
37.56	56.9411
37.78	27.2295
38	103.924
38.22	65.0025
38.44	20.2721
38.66	8.38915
38.88	29.0101
39.1	11.6076
39.32	7.68877
39.54	17.2016
39.76	24.4665
39.98	13.0011
40.2	14.0056
40.42	13.4291
40.64	13.7479
40.86	17.1431
41.08	11.0228
41.3	6.1977
41.52	18.9937
41.74	21.3562
41.96	3.2693
42.18	25.0759
42.4	2.75112
42.62	19.5469
42.84	0.018448
43.06	29.8492
43.28	15.9968
43.5	19.3596
43.72	6.31172
43.94	3.52653
44.16	4.58064
44.38	22.6606
44.6	19.8572
44.82	4.31879
45.04	26.2369
45.26	12.1402
45.48	7.35841
45.7	15.807
45.92	4.88776
46.14	39.1613
46.36	72.5188
46.58	64.4168
46.8	21.6523
47.02	35.8749
47.24	20.6221
47.46	7.98608
47.68	32.3364
47.9	17.802
48.12	30.3764
48.34	1.71864
48.56	51.9706
48.78	34.5824
49	1.50739
49.22	75.8715
49.44	68.0903
49.66	208.055
49.88	24.7864
50.1	14.6848
50.32	20.7137
50.54	3.10445
50.76	10.1355
50.98	6.82503
51.2	17.7476
51.42	15.8984
51.64	57.0476
51.86	13.9421
52.08	12.8103
52.3	6.38617
52.52	2.65709
52.74	1.28538
52.96	12.9932
53.18	7.52623
53.4	22.4747
53.62	20.1407
53.84	15.0417
54.06	25.195
54.28	28.2286
54.5	13.0958
54.72	13.1996
54.94	11.5215
55.16	21.3581
55.38	20.124
55.6	55.964
55.82	10.1273
56.04	21.7327
56.26	11.2179
56.48	7.99284
56.7	0.284454
56.92	7.43398
57.14	36.8723
57.36	19.9387
57.58	11.7776
57.8	14.9082
58.02	4.82806
58.24	11.6481
58.46	24.5125
58.68	14.3614
58.9	0.288223
59.12	18.045
59.34	36.2453
59.56	26.4616
59.78	13.1084
60	8.63087
60.22	4.92268
60.44	26.054
60.66	17.925
60.88	14.9809
61.1	26.3199
61.32	5.80571
61.54	13.5298
61.76	16.028
61.98	10.8381
62.2	8.49798
62.42	26.3605
62.64	8.5218
62.86	2.32938
63.08	18.9774
63.3	19.9692
63.52	18.6007
63.74	9.20146
63.96	35.4783
64.18	6.0838
64.4	5.92107
64.62	19.4322
64.84	9.05959
65.06	15.505
65.28	19.9661
65.5	27.236
65.72	14.7492
65.94	19.6722
66.16	13.7122
66.38	26.1248
66.6	10.9952
66.82	18.1518
67.04	19.1573
67.26	18.0032
67.48	8.56099
67.7	6.45052
67.92	3.09878
68.14	2.85252
68.36	21.916
68.58	13.829
68.8	23.5788
69.02	23.2981
69.24	18.0439
69.46	9.31007
69.68	11.1437
69.9	24.95
70.12	33.886
70.34	7.52309
70.56	10.2572
70.78	9.81197
71	11.8775
71.22	12.7863
71.44	7.09281
71.66	17.2145
71.88	0.912331
72.1	21.1322
72.32	9.97105
72.54	13.7345
72.76	18.3111
72.98	6.85726
73.2	21.3544
73.42	52.4446
73.64	33.5935
73.86	13.1084
74.08	6.29823
74.3	4.31083
74.52	38.1596
74.74	21.5685
74.96	11.8116
75.18	17.2484
75.4	12.7383
75.62	30.5843
75.84	11.7806
76.06	22.911
76.28	13.558
76.5	33.0268
76.72	19.726
76.94	22.0268
77.16	8.88045
77.38	25.5381
77.6	5.59306
77.82	4.11914
78.04	25.5667
78.26	20.4503
78.48	1.9865
78.7	14.1105
78.92	14.0101
79.14	4.2795
79.36	2.21058
79.58	15.9556
79.8	18.3155
80.02	12.4038
80.24	7.72737
80.46	4.90363
80.68	32.3861
80.9	8.027
81.12	17.6531
81.34	7.85998
81.56	4.10652
81.78	8.63943
82	20.8475
82.22	14.0758
82.44	17.0424
82.66	12.5117
82.88	12.8607
83.1	10.4403
83.32	27.7
83.54	6.29634
83.76	16.6573
83.98	18.0597
84.2	16.569
84.42	13.6446
84.64	19.2926
84.86	0.524185
85.08	14.0186
85.3	6.6138
85.52	6.86787
85.74	15.7112
85.96	10.3439
86.18	18.7019
86.4	33.3335
86.62	22.1074
86.84	12.0194
87.06	3.24485
87.28	16.0084
87.5	17.0335
87.72	12.0912
87.94	17.3964
88.16	21.6293
88.38	31.4743
88.6	24.0266
88.82	23.7707
89.04	10.7939
89.26	18.9815
89.48	16.8421
89.7	21.9697
89.92	12.243
