Measurement: Powder, Xray Data XY Processed
Mineral: Bikitaite
Rruff sample: R050160
Ideal chemistry: LiAlSi_2_O_6_H_2_O
Locality: Foote mine, Kings Mountain, Cleveland County, North Carolina, USA
Source: Jim McGlasson
Description: Colorless prismatic crystals
Diffraction sample description: Powder
Measured chemistry: Li_1.00_Si_2.00_O_6_Â·1.25H_2_O ; Li not measured but estimated by stoichiometry
Cell parameters: a: 8.6084(3) b: 4.960(1) c: 7.5976(3) alpha: 89.89(1) beta: 114.412(4) gamma: 89.96(2) volume: 295.37(6) crystal system: triclinic
x	intensity
5	0
5.22	8.44566
5.44	6.76416
5.66	14.9113
5.88	8.37828
6.1	13.8755
6.32	19.1073
6.54	11.002
6.76	16.3407
6.98	15.1195
7.2	0.084452
7.42	12.5537
7.64	10.2889
7.86	10.8042
8.08	3.44016
8.3	12.3321
8.52	7.38666
8.74	4.56096
8.96	8.58015
9.18	0.295134
9.4	0.196426
9.62	1.21527
9.84	1.29426
10.06	4.09134
10.28	3.00748
10.5	6.01891
10.72	4.53695
10.94	5.60176
11.16	23.3795
11.38	45.3131
11.6	5.20338
11.82	0.640052
12.04	7.52107
12.26	16.5809
12.48	4.99833
12.7	35.1842
12.92	19.1589
13.14	318.48
13.36	10.7584
13.58	3.98532
13.8	14.2746
14.02	9.88373
14.24	5.21066
14.46	4.54808
14.68	4.68739
14.9	8.88152
15.12	3.24022
15.34	3.65862
15.56	10.6875
15.78	0.722175
16	10.9053
16.22	12.0249
16.44	4.30784
16.66	6.37126
16.88	9.402
17.1	8.71904
17.32	13.3695
17.54	1.24726
17.76	4.23042
17.98	4.24202
18.2	2.95702
18.42	4.18002
18.64	8.17776
18.86	6.58568
19.08	1.04599
19.3	0.468121
19.52	1.5612
19.74	6.85975
19.96	10.0023
20.18	14.01
20.4	217.378
20.62	0.181667
20.84	16.07
21.06	18.0055
21.28	651.581
21.5	13.4091
21.72	3.56039
21.94	8.54133
22.16	10.6947
22.38	2.99064
22.6	7.46424
22.82	2.63736
23.04	8.2489
23.26	23.8454
23.48	95.0968
23.7	12.5034
23.92	8.91517
24.14	5.82476
24.36	11.5953
24.58	11.0333
24.8	5.30349
25.02	12.282
25.24	5.00939
25.46	8.50045
25.68	64.013
25.9	40.2278
26.12	20.3453
26.34	225.45
26.56	56.9932
26.78	12.7539
27	4.212
27.22	105.013
27.44	13.1537
27.66	173.186
27.88	11.1822
28.1	3.07058
28.32	0.929206
28.54	1.91586
28.76	7.75014
28.98	23.5977
29.2	17.633
29.42	1.81805
29.64	11.2075
29.86	3.90246
30.08	8.98517
30.3	5.20153
30.52	54.1936
30.74	10.284
30.96	9.20842
31.18	54.3424
31.4	8.47779
31.62	4.30449
31.84	1.85709
32.06	35.0536
32.28	7.41425
32.5	14.5318
32.72	7.88234
32.94	14.2167
33.16	2.70934
33.38	9.02026
33.6	3.11862
33.82	7.1156
34.04	11.9346
34.26	8.36634
34.48	1.03272
34.7	6.32115
34.92	2.67911
35.14	11.1561
35.36	6.76273
35.58	103.135
35.8	5.22071
36.02	7.05128
36.24	225.057
36.46	10.4759
36.68	2.80963
36.9	5.06583
37.12	19.3308
37.34	11.9474
37.56	2.72069
37.78	0.45355
38	11.7871
38.22	20.7661
38.44	1.03521
38.66	15.4848
38.88	7.13166
39.1	19.2592
39.32	8.41305
39.54	2.61169
39.76	4.47529
39.98	2.53447
40.2	12.8902
40.42	5.29588
40.64	8.10674
40.86	8.04254
41.08	1.76799
41.3	11.7111
41.52	4.71128
41.74	8.77259
41.96	9.71917
42.18	9.39794
42.4	6.7553
42.62	8.68193
42.84	1.31925
43.06	10.2788
43.28	14.3428
43.5	5.73673
43.72	3.00782
43.94	4.83946
44.16	53.5542
44.38	9.32245
44.6	0.18672
44.82	0.409379
45.04	25.2632
45.26	8.26458
45.48	39.1262
45.7	75.0896
45.92	4.71521
46.14	9.46958
46.36	34.8283
46.58	12.1694
46.8	59.1345
47.02	7.13664
47.24	10.972
47.46	2.20853
47.68	2.84963
47.9	173.611
48.12	13.327
48.34	2.01335
48.56	21.8516
48.78	2.50475
49	49.0928
49.22	22.3349
49.44	4.36824
49.66	0.624895
49.88	20.8791
50.1	19.2128
50.32	2.66902
50.54	15.1016
50.76	15.706
50.98	3.95133
51.2	4.52842
51.42	3.90101
51.64	5.32221
51.86	1.37992
52.08	2.8138
52.3	4.92989
52.52	13.9503
52.74	5.0164
52.96	3.2264
53.18	0.153531
53.4	12.9689
53.62	5.20881
53.84	4.58381
54.06	7.24886
54.28	12.3065
54.5	2.1811
54.72	6.21339
54.94	4.13691
55.16	15.8697
55.38	3.84547
55.6	32.7607
55.82	4.55603
56.04	7.00658
56.26	0.123392
56.48	2.16687
56.7	5.71005
56.92	11.836
57.14	20.0965
57.36	6.35447
57.58	6.67
57.8	1.5907
58.02	9.39061
58.24	8.61657
58.46	6.62604
58.68	1.51257
58.9	42.384
59.12	8.24346
59.34	9.40462
59.56	6.97248
59.78	9.56455
60	6.21229
60.22	17.0743
60.44	6.95842
60.66	6.79514
60.88	7.87821
61.1	9.74102
61.32	5.79892
61.54	0.993099
61.76	10.0811
61.98	5.99021
62.2	10.9484
62.42	0.105092
62.64	7.12828
62.86	2.43702
63.08	2.41546
63.3	6.15805
63.52	9.14316
63.74	3.04281
63.96	6.54196
64.18	0.105198
64.4	9.78667
64.62	33.2109
64.84	7.07013
65.06	32.7864
65.28	6.29135
65.5	1.99676
65.72	1.8423
65.94	6.56738
66.16	13.3073
66.38	27.1716
66.6	8.31162
66.82	8.98466
67.04	9.31394
67.26	9.51784
67.48	6.48778
67.7	13.0401
67.92	3.43227
68.14	10.8829
68.36	12.5373
68.58	1.9293
68.8	1.20441
69.02	8.24481
69.24	9.20081
69.46	2.67782
69.68	12.3945
69.9	4.84902
70.12	22.842
70.34	9.86154
70.56	5.95675
70.78	12.9374
71	2.23683
71.22	5.34431
71.44	5.46943
71.66	1.51959
71.88	14.7641
72.1	9.94063
72.32	12.9292
72.54	7.02037
72.76	4.08676
72.98	5.13258
73.2	12.2213
73.42	2.16968
73.64	0.238212
73.86	13.0052
74.08	3.77927
74.3	9.79679
74.52	1.35048
74.74	5.44993
74.96	12.1178
75.18	5.78241
75.4	18.5053
75.62	13.2973
75.84	2.86523
76.06	5.44647
76.28	10.148
76.5	18.3471
76.72	4.10068
76.94	9.14659
77.16	9.43146
77.38	13.574
77.6	3.24016
77.82	0.117209
78.04	15.7867
78.26	6.81285
78.48	8.8392
78.7	6.95963
78.92	6.6166
79.14	14.9827
79.36	22.5671
79.58	14.4198
79.8	2.59649
80.02	3.6908
80.24	2.83295
80.46	3.93897
80.68	6.36558
80.9	17.755
81.12	11.0059
81.34	9.2551
81.56	5.53874
81.78	7.44331
82	3.64323
82.22	0.257391
82.44	1.90882
82.66	1.04917
82.88	3.16348
83.1	6.54705
83.32	4.63339
83.54	1.72333
83.76	4.75544
83.98	13.468
84.2	4.56621
84.42	7.63658
84.64	6.75426
84.86	1.69313
85.08	0.364518
85.3	8.54075
85.52	5.98146
85.74	6.17837
85.96	6.06054
86.18	11.122
86.4	7.0476
86.62	8.08475
86.84	3.07865
87.06	4.00729
87.28	1.29477
87.5	5.53619
87.72	5.69672
87.94	9.82126
88.16	2.63538
88.38	2.94298
88.6	0.910781
88.82	5.97097
89.04	2.07105
89.26	5.06207
89.48	1.01079
89.7	18.2697
89.92	7.17805
