Measurement: Powder, Xray Data XY Processed
Mineral: Bikitaite
Rruff sample: R060032
Ideal chemistry: LiAlSi_2_O_6_H_2_O
Locality: Al Hyat mine, Bikita, Fort Victoria, Southern Rhodesia
Source: University of Arizona Mineral Museum
Description: A group of radiating white to colorless acicular crystals
Diffraction sample description: Powder, with quartz (a=4.9248(2), c=5.4110(1), V=113.655(8))
Measured chemistry: Li_1.00_Al_1.00_Si_2.00_O_6_Â·H_2_O ; Li not measured but estimated by charge balance
Cell parameters: a: 8.6139(5) b: 4.964(6) c: 7.6012(6) alpha: 89.97(3) beta: 114.432(4) gamma: 89.95(7) volume: 295.9(0) crystal system: triclinic
x	intensity
5	0
5.22	1.989
5.44	19.982
5.66	2.9
5.88	12.23
6.1	10.028
6.32	13.025
6.54	7.732
6.76	3.902
6.98	10.908
7.2	0.132
7.42	7.759
7.64	10.425
7.86	1.026
8.08	6.556
8.3	4.513
8.52	0.924
8.74	8.133
8.96	16.62
9.18	4.643
9.4	9.804
9.62	5.993
9.84	4.074
10.06	6.134
10.28	0.145
10.5	4.204
10.72	2.404
10.94	3.365
11.16	9.426
11.38	245.491
11.6	14.507
11.82	1.568
12.04	0.399
12.26	2.408
12.48	8.526
12.7	10.862
12.92	105.806
13.14	19.789
13.36	4.924
13.58	7.445
13.8	0.636
14.02	0.891
14.24	5.399
14.46	0.712
14.68	3.384
14.9	4.679
15.12	3.665
15.34	4.795
15.56	6.041
15.78	1.093
16	0.747
16.22	7.517
16.44	6.234
16.66	7.232
16.88	3.301
17.1	0.135
17.32	4.875
17.54	3.916
17.76	7.916
17.98	5.787
18.2	3.786
18.42	6.947
18.64	3.978
18.86	7.126
19.08	0.296
19.3	0.022
19.52	3.632
19.74	3.391
19.96	6.094
20.18	2.177
20.4	99.503
20.62	4.382
20.84	13.123
21.06	46.04
21.28	276.606
21.5	14.417
21.72	4.383
21.94	4.435
22.16	0.291
22.38	25.882
22.6	7.01
22.82	10.202
23.04	2.274
23.26	0.479
23.48	38.844
23.7	7.912
23.92	10.46
24.14	7.814
24.36	6.693
24.58	10.193
24.8	6.669
25.02	0.181
25.24	3.505
25.46	0.724
25.68	10.598
25.9	230.646
26.12	8.873
26.34	10.987
26.56	158.243
26.78	229.979
27	10.213
27.22	27.047
27.44	18.722
27.66	8.412
27.88	14.08
28.1	0.143
28.32	0.373
28.54	1.462
28.76	7.077
28.98	11.842
29.2	43.594
29.42	6.745
29.64	6.422
29.86	12.469
30.08	0.664
30.3	10.728
30.52	3.701
30.74	0.736
30.96	0.541
31.18	8.58
31.4	8.335
31.62	0.119
31.84	2.331
32.06	4.602
32.28	7.714
32.5	4.954
32.72	4.201
32.94	7.394
33.16	4.645
33.38	0.749
33.6	4.935
33.82	6.084
34.04	4.214
34.26	5.002
34.48	3.716
34.7	4.349
34.92	0.044
35.14	3.662
35.36	6.417
35.58	10.063
35.8	15.968
36.02	6.927
36.24	99.762
36.46	19.598
36.68	20.806
36.9	3.981
37.12	4.031
37.34	8.163
37.56	4.325
37.78	2.565
38	6.481
38.22	19.457
38.44	3.254
38.66	7.306
38.88	9.345
39.1	11.32
39.32	3.277
39.54	26.385
39.76	4.394
39.98	0.813
40.2	2.094
40.42	11.354
40.64	3.481
40.86	6.695
41.08	4.686
41.3	1.362
41.52	6.57
41.74	7.601
41.96	5.642
42.18	3.541
42.4	5.193
42.62	9.092
42.84	5.921
43.06	1.232
43.28	5.511
43.5	5.432
43.72	3.785
43.94	3.629
44.16	11.399
44.38	16.019
44.6	0.883
44.82	1.702
45.04	9.629
45.26	4.424
45.48	36.429
45.7	11.486
45.92	16.531
46.14	2.56
46.36	11.272
46.58	9.513
46.8	3.683
47.02	3.835
47.24	2.201
47.46	7.065
47.68	6.054
47.9	15.121
48.12	23.062
48.34	2.865
48.56	6.778
48.78	2.135
49	3.151
49.22	23.104
49.44	5.093
49.66	2.978
49.88	0.953
50.1	11.459
50.32	17.595
50.54	20.9
50.76	9.065
50.98	6.009
51.2	1.212
51.42	2.362
51.64	11.568
51.86	2.633
52.08	2.656
52.3	1.485
52.52	1.558
52.74	9.555
52.96	14.39
53.18	8.557
53.4	6.363
53.62	0.275
53.84	9.951
54.06	4.852
54.28	1.235
54.5	2.707
54.72	5.587
54.94	7.693
55.16	1.623
55.38	9.573
55.6	1.434
55.82	9.736
56.04	1.668
56.26	1.749
56.48	4.013
56.7	5.143
56.92	7.134
57.14	14.407
57.36	11.303
57.58	7.295
57.8	4.229
58.02	0.01
58.24	1.214
58.46	4.951
58.68	1.804
58.9	9.385
59.12	13.224
59.34	0.182
59.56	5.976
59.78	2.748
60	23.745
60.22	10.677
60.44	2.609
60.66	6.64
60.88	15.523
61.1	6.535
61.32	1.53
61.54	8.613
61.76	1.711
61.98	2.778
62.2	2.799
62.42	3.574
62.64	5.877
62.86	1.169
63.08	4.025
63.3	9.748
63.52	16.709
63.74	8.696
63.96	1.546
64.18	3.161
64.4	2.21
64.62	17.757
64.84	5.558
65.06	18.156
65.28	20.609
65.5	2.386
65.72	7.189
65.94	4.793
66.16	3.413
66.38	14.181
66.6	9.014
66.82	5.297
67.04	21.735
67.26	11.813
67.48	6.832
67.7	21.98
67.92	20.608
68.14	19.984
68.36	21.653
68.58	4.233
68.8	2.588
69.02	0.899
69.24	3.145
69.46	1.414
69.68	10.57
69.9	6.374
70.12	11.041
70.34	5.899
70.56	2.97
70.78	3.997
71	1.966
71.22	1.114
71.44	2.207
71.66	3.347
71.88	4.682
72.1	0.16
72.32	15.988
72.54	11.734
72.76	12.478
72.98	2.466
73.2	4.564
73.42	3.572
73.64	5.582
73.86	1.675
74.08	6.551
74.3	5.137
74.52	5.936
74.74	5.736
74.96	3.918
75.18	4.931
75.4	8.719
75.62	11.474
75.84	4.431
76.06	2.257
76.28	4.117
76.5	1.214
76.72	3.191
76.94	4.498
77.16	4.592
77.38	0.81
77.6	0.752
77.82	5.4
78.04	1.584
78.26	4.302
78.48	4.248
78.7	5.167
78.92	5.022
79.14	9.552
79.36	7.476
79.58	6.449
79.8	13.518
80.02	4.564
80.24	0.522
80.46	4.641
80.68	2.701
80.9	11.117
81.12	16.4
81.34	7.526
81.56	4.186
81.78	5.083
82	3.234
82.22	1.413
82.44	2.523
82.66	2.627
82.88	1.815
83.1	6.139
83.32	0.27
83.54	5.327
83.76	6.453
83.98	2.599
84.2	6.79
84.42	3.816
84.64	1.237
84.86	4.807
85.08	1.214
85.3	11.704
85.52	4.368
85.74	2.221
85.96	3.296
86.18	5.175
86.4	5.994
86.62	1.886
86.84	0.923
87.06	2.986
87.28	4.916
87.5	11.083
87.72	9.079
87.94	4.959
88.16	8.929
88.38	2.744
88.6	2.688
88.82	1.594
89.04	5.584
89.26	6.559
89.48	3.14
89.7	4.217
89.92	8.036
