Measurement: Powder, Xray Data XY Processed
Mineral: Bismutite
Rruff sample: R060665
Ideal chemistry: Bi_2_O_2_(CO_3_)
Locality: Ecuador, Rio Grande do Norte, Brazil
Source: Michael Scott
Description: Green massive, platy
Diffraction sample description: Powder
Measured chemistry: (Bi_1.99_Sb_0.01_)O_2_(CO_3_) ; is the lighter phase. The darker phase is: (Bi_1.98_Sb_0.02_)O_2_(CO_3_) ; C not measured but estimated by difference and stoichiometry
Cell parameters: a: 3.8756(8) b: 3.879(1) c: 13.757(5) alpha: 90 beta: 90 gamma: 90 volume: 206.84(6) crystal system: orthorhombic
x	intensity
5	0
5.22	4.19546
5.44	4.84225
5.66	11.729
5.88	12.6739
6.1	6.71977
6.32	5.35431
6.54	10.2927
6.76	11.6465
6.98	6.93673
7.2	8.53875
7.42	10.4683
7.64	0.040892
7.86	2.35726
8.08	2.79077
8.3	11.2728
8.52	4.53865
8.74	7.8194
8.96	5.94031
9.18	4.01498
9.4	5.26799
9.62	3.2146
9.84	6.07982
10.06	5.80759
10.28	2.6288
10.5	2.31081
10.72	3.87244
10.94	2.33627
11.16	8.95033
11.38	3.50906
11.6	6.04232
11.82	5.47083
12.04	4.58089
12.26	1.21589
12.48	7.32111
12.7	24.3674
12.92	40.5286
13.14	14.1135
13.36	11.4562
13.58	8.94527
13.8	1.69778
14.02	7.38012
14.24	6.00083
14.46	2.42603
14.68	0.19042
14.9	7.00633
15.12	2.22751
15.34	5.42648
15.56	2.25572
15.78	2.31031
16	7.29611
16.22	5.04015
16.44	1.95707
16.66	1.85631
16.88	2.81725
17.1	4.78001
17.32	1.81323
17.54	5.86925
17.76	0.830552
17.98	3.66938
18.2	4.66069
18.42	2.71482
18.64	6.77133
18.86	5.62689
19.08	3.54083
19.3	1.65522
19.52	4.74896
19.74	2.71407
19.96	7.65413
20.18	7.89232
20.4	2.89786
20.62	8.77245
20.84	3.837
21.06	1.66802
21.28	3.62481
21.5	0.665889
21.72	4.40181
21.94	2.34345
22.16	3.91366
22.38	2.55274
22.6	2.86348
22.82	0.449244
23.04	8.04965
23.26	0.562307
23.48	11.0996
23.7	39.8165
23.92	77.4627
24.14	29.4593
24.36	11.1051
24.58	0.965638
24.8	0.87755
25.02	6.81915
25.24	0.793928
25.46	1.26958
25.68	13.3137
25.9	12.3512
26.12	23.2659
26.34	15.4918
26.56	6.43785
26.78	1.64807
27	12.1897
27.22	8.64411
27.44	8.7598
27.66	5.06738
27.88	5.46112
28.1	3.01023
28.32	1.62487
28.54	7.57252
28.76	0.644274
28.98	3.1482
29.2	0.046588
29.42	12.7739
29.64	30.7046
29.86	67.9972
30.08	152.17
30.3	161.636
30.52	60.0445
30.74	23.8417
30.96	10.7156
31.18	4.33129
31.4	0.92982
31.62	4.77755
31.84	4.47691
32.06	2.92252
32.28	14.8645
32.5	37.4609
32.72	92.4747
32.94	38.7311
33.16	7.46179
33.38	9.67823
33.6	0.699961
33.82	0.412562
34.04	5.87694
34.26	11.1636
34.48	6.51143
34.7	7.71296
34.92	1.91729
35.14	17.0643
35.36	18.3055
35.58	6.55432
35.8	1.70771
36.02	2.92173
36.24	2.67401
36.46	2.50811
36.68	4.84541
36.9	3.00252
37.12	7.16574
37.34	4.96576
37.56	3.54731
37.78	0.19391
38	2.92772
38.22	0.559557
38.44	6.82535
38.66	2.39298
38.88	9.04545
39.1	1.54545
39.32	8.28613
39.54	15.855
39.76	13.2821
39.98	5.65072
40.2	7.02094
40.42	11.1402
40.64	8.2609
40.86	1.40339
41.08	1.50329
41.3	0.435118
41.52	3.51516
41.74	7.56037
41.96	28.6902
42.18	41.2901
42.4	21.2624
42.62	14.1483
42.84	4.44732
43.06	4.94499
43.28	3.27017
43.5	1.67555
43.72	7.23757
43.94	2.56788
44.16	1.99369
44.38	3.1579
44.6	2.76648
44.82	4.77686
45.04	6.65187
45.26	0.472782
45.48	5.02724
45.7	1.58922
45.92	4.1278
46.14	5.53067
46.36	7.09643
46.58	17.748
46.8	36.2241
47.02	56.5047
47.24	19.4866
47.46	3.35179
47.68	4.08195
47.9	7.0929
48.12	4.31846
48.34	3.76153
48.56	7.96206
48.78	11.4843
49	7.50997
49.22	3.79672
49.44	9.70637
49.66	7.7374
49.88	5.53874
50.1	5.46342
50.32	0.906957
50.54	4.0793
50.76	4.93811
50.98	0.036857
51.2	0.613112
51.42	12.5112
51.64	12.4233
51.86	20.3709
52.08	27.4622
52.3	18.6967
52.52	13.1859
52.74	6.50353
52.96	10.9169
53.18	13.3231
53.4	17.9135
53.62	0.302989
53.84	4.93454
54.06	2.03721
54.28	7.33233
54.5	7.70064
54.72	7.57337
54.94	1.85495
55.16	3.84063
55.38	3.20546
55.6	5.33053
55.82	3.33331
56.04	5.1956
56.26	14.8254
56.48	21.1992
56.7	65.2242
56.92	40.8629
57.14	29.2511
57.36	14.823
57.58	11.1915
57.8	1.63853
58.02	6.32709
58.24	7.08303
58.46	5.58113
58.68	6.35294
58.9	2.73642
59.12	8.69095
59.34	8.87027
59.56	2.70301
59.78	4.77662
60	3.82295
60.22	8.76326
60.44	5.70084
60.66	6.35955
60.88	1.80286
61.1	3.83196
61.32	11.5955
61.54	3.34432
61.76	0.936934
61.98	3.95011
62.2	10.4795
62.42	6.34979
62.64	8.17145
62.86	18.2443
63.08	22.2946
63.3	8.67534
63.52	5.73494
63.74	3.80901
63.96	8.88478
64.18	7.93869
64.4	8.89162
64.62	8.96621
64.84	13.8794
65.06	2.80666
65.28	13.7541
65.5	6.68778
65.72	9.60304
65.94	2.82692
66.16	10.9422
66.38	7.49238
66.6	2.86398
66.82	0.979826
67.04	11.0976
67.26	3.2148
67.48	1.73289
67.7	4.25541
67.92	0.822248
68.14	9.91719
68.36	18.1995
68.58	15.2325
68.8	4.80309
69.02	5.59894
69.24	0.630939
69.46	1.96333
69.68	5.16854
69.9	6.31942
70.12	9.61435
70.34	3.86734
70.56	1.97084
70.78	1.60887
71	1.78432
71.22	0.020116
71.44	5.87104
71.66	4.69824
71.88	5.29914
72.1	2.99045
72.32	4.01322
72.54	13.5983
72.76	10.4793
72.98	8.3578
73.2	13.0807
73.42	7.91699
73.64	6.75621
73.86	5.88736
74.08	10.031
74.3	0.448497
74.52	8.62679
74.74	7.38851
74.96	6.48006
75.18	6.23446
75.4	4.85209
75.62	6.45227
75.84	5.10734
76.06	1.74427
76.28	5.28774
76.5	2.02385
76.72	7.21862
76.94	11.9302
77.16	5.60107
77.38	14.5057
77.6	4.99646
77.82	3.27959
78.04	12.8143
78.26	8.36112
78.48	6.00934
78.7	2.53804
78.92	0.141778
79.14	3.40773
79.36	10.0657
79.58	8.41893
79.8	4.73074
80.02	12.6167
80.24	5.72012
80.46	4.51514
80.68	5.32319
80.9	6.17355
81.12	2.06233
81.34	0.691568
81.56	5.64883
81.78	13.1562
82	6.06023
82.22	5.02519
82.44	5.52085
82.66	0.215913
82.88	6.88636
83.1	3.63133
83.32	6.37148
83.54	16.201
83.76	9.93364
83.98	11.7216
84.2	10.6841
84.42	8.10491
84.64	11.1235
84.86	1.39959
85.08	7.85522
85.3	7.15464
85.52	2.52338
85.74	2.6995
85.96	4.98243
86.18	7.36712
86.4	5.67066
86.62	3.9156
86.84	5.66083
87.06	7.02446
87.28	3.24324
87.5	3.31994
87.72	4.58245
87.94	1.82143
88.16	4.98916
88.38	4.18947
88.6	7.11099
88.82	0.906997
89.04	12.2837
89.26	3.89702
89.48	8.66585
89.7	4.79514
89.92	8.63111
