Measurement: Powder, Xray Data XY Processed
Mineral: Bixbyite-(Fe)
Rruff sample: R050395
Ideal chemistry: Fe^3+^_2_O_3_
Locality: Thomas Range, Juab County, Utah, USA
Source: Marcus Origlieri
Description: Black cube modified with octahedral corners
Diffraction sample description: Powder
Measured chemistry: (Fe^3+^_1.09_Mn^3+^_0.83_Al_0.04_Ti_0.03_[box]_0.01_)_Î£=2_O_3_
Cell parameters: a: 9.4124(3) b: 9.4124(3) c: 9.4124(3) alpha: 90. beta: 90. gamma: 90. volume: 833.88(7) crystal system: cubic
x	intensity
5	0
5.22	9.38284
5.44	20.0567
5.66	11.9741
5.88	16.4844
6.1	10.2785
6.32	19.945
6.54	19.0313
6.76	24.945
6.98	21.778
7.2	23.3807
7.42	29.6324
7.64	13.5454
7.86	30.3579
8.08	17.3918
8.3	23.7558
8.52	20.6159
8.74	7.06007
8.96	14.4324
9.18	27.1576
9.4	0.126465
9.62	22.0848
9.84	23.6963
10.06	17.974
10.28	12.4427
10.5	5.86639
10.72	24.6065
10.94	13.5058
11.16	13.2194
11.38	9.95898
11.6	2.25288
11.82	18.0891
12.04	24.7322
12.26	18.416
12.48	21.9744
12.7	36.7475
12.92	18.4439
13.14	9.01539
13.36	7.65027
13.58	11.3726
13.8	12.6704
14.02	17.168
14.24	12.1773
14.46	2.88317
14.68	22.4465
14.9	13.9247
15.12	0.815788
15.34	19.8505
15.56	5.90755
15.78	16.3327
16	11.2842
16.22	2.5557
16.44	13.5779
16.66	0.597191
16.88	15.312
17.1	10.9338
17.32	23.4257
17.54	11.3727
17.76	12.6243
17.98	19.2523
18.2	4.01613
18.42	26.8683
18.64	21.3391
18.86	12.3898
19.08	17.2075
19.3	14.0327
19.52	2.06416
19.74	7.65461
19.96	10.0964
20.18	17.62
20.4	1.21973
20.62	14.0927
20.84	24.9462
21.06	22.2455
21.28	16.7765
21.5	16.5901
21.72	25.5418
21.94	7.45261
22.16	19.8223
22.38	8.88105
22.6	34.5471
22.82	12.8486
23.04	17.477
23.26	43.8084
23.48	27.5317
23.7	12.621
23.92	3.89423
24.14	17.349
24.36	4.83856
24.58	7.37634
24.8	14.2029
25.02	7.79561
25.24	14.1903
25.46	9.89005
25.68	1.88158
25.9	0.2472
26.12	0.974007
26.34	5.38202
26.56	2.61895
26.78	41.4774
27	12.9197
27.22	20.3578
27.44	12.562
27.66	22.1959
27.88	18.8341
28.1	12.2393
28.32	10.5694
28.54	3.7076
28.76	17.8541
28.98	7.06768
29.2	17.0796
29.42	23.5735
29.64	12.0752
29.86	6.78304
30.08	33.7584
30.3	7.44302
30.52	2.09921
30.74	21.2476
30.96	33.9447
31.18	0.547188
31.4	32.0742
31.62	16.2037
31.84	9.99715
32.06	21.4731
32.28	31.9567
32.5	6.59956
32.72	16.7121
32.94	32.9567
33.16	133.002
33.38	20.2842
33.6	14.6641
33.82	11.048
34.04	1.84808
34.26	22.4384
34.48	12.1384
34.7	6.95975
34.92	25.0993
35.14	6.06734
35.36	17.8325
35.58	14.6387
35.8	3.25385
36.02	14.1975
36.24	6.46179
36.46	13.7013
36.68	21.1533
36.9	6.02119
37.12	14.2371
37.34	11.6877
37.56	39.0511
37.78	16.4983
38	8.57523
38.22	20.1562
38.44	27.8734
38.66	20.5492
38.88	21.6349
39.1	18.9353
39.32	7.87025
39.54	15.9421
39.76	0.712837
39.98	7.01761
40.2	20.5631
40.42	12.3157
40.64	15.5137
40.86	17.5408
41.08	21.6206
41.3	17.315
41.52	7.10141
41.74	31.6593
41.96	15.4765
42.18	30.4809
42.4	19.1354
42.62	27.283
42.84	16.0255
43.06	16.4982
43.28	14.4482
43.5	23.1295
43.72	21.314
43.94	21.0797
44.16	30.9191
44.38	3.49393
44.6	12.8971
44.82	4.10934
45.04	41.027
45.26	32.2178
45.48	9.8754
45.7	24.5563
45.92	23.3431
46.14	18.7573
46.36	3.20451
46.58	5.42866
46.8	31.0713
47.02	19.6267
47.24	17.0306
47.46	15.9471
47.68	21.442
47.9	30.9
48.12	17.2776
48.34	20.0491
48.56	12.6901
48.78	44.2682
49	19.3461
49.22	2.85085
49.44	33.6785
49.66	24.912
49.88	27.5432
50.1	11.0756
50.32	16.1975
50.54	22.4334
50.76	34.1943
50.98	9.47086
51.2	21.0351
51.42	34.0569
51.64	6.25623
51.86	25.6843
52.08	27.8935
52.3	12.3331
52.52	17.1268
52.74	19.8956
52.96	28.7572
53.18	21.2489
53.4	17.8407
53.62	4.70829
53.84	16.2251
54.06	17.9141
54.28	14.6134
54.5	2.93346
54.72	10.3655
54.94	24.9364
55.16	26.9909
55.38	59.3023
55.6	0.419731
55.82	28.454
56.04	21.6628
56.26	34.602
56.48	12.2148
56.7	9.16671
56.92	16.201
57.14	21.1331
57.36	12.921
57.58	21.8373
57.8	24.2328
58.02	14.9674
58.24	36.8426
58.46	31.5376
58.68	22.1593
58.9	29.1684
59.12	19.193
59.34	9.89291
59.56	26.5251
59.78	11.1035
60	8.61395
60.22	2.08935
60.44	22.3995
60.66	23.3686
60.88	28.9231
61.1	15.6354
61.32	5.46748
61.54	11.7632
61.76	2.71415
61.98	7.94911
62.2	16.7227
62.42	28.2227
62.64	20.7495
62.86	18.8744
63.08	22.6379
63.3	14.3125
63.52	24.2646
63.74	3.53674
63.96	1.76896
64.18	34.5837
64.4	34.7201
64.62	21.7765
64.84	4.40197
65.06	16.0868
65.28	6.57877
65.5	24.7686
65.72	24.573
65.94	53.3136
66.16	8.00449
66.38	9.55862
66.6	16.4351
66.82	15.8337
67.04	14.7045
67.26	27.8742
67.48	23.9193
67.7	25.1091
67.92	16.727
68.14	14.5455
68.36	16.3497
68.58	5.09955
68.8	20.5216
69.02	12.8434
69.24	30.6909
69.46	5.62244
69.68	1.39737
69.9	5.73036
70.12	23.6194
70.34	31.6319
70.56	5.65735
70.78	12.3307
71	1.2387
71.22	16.3608
71.44	8.19946
71.66	13.3868
71.88	14.8357
72.1	7.68621
72.32	23.688
72.54	22.3262
72.76	9.22075
72.98	16.7348
73.2	16.3308
73.42	20.7819
73.64	8.36667
73.86	33.5114
74.08	28.1109
74.3	9.46117
74.52	0.015747
74.74	14.4518
74.96	8.12293
75.18	5.66805
75.4	34.2938
75.62	32.364
75.84	34.8587
76.06	30.3131
76.28	27.8614
76.5	31.2805
76.72	7.40506
76.94	35.8903
77.16	3.85412
77.38	49.3443
77.6	2.26727
77.82	4.38111
78.04	1.26595
78.26	7.86373
78.48	17.9874
78.7	19.1121
78.92	12.9624
79.14	36.811
79.36	6.83963
79.58	9.47626
79.8	44.0436
80.02	6.99026
80.24	19.8362
80.46	26.5775
80.68	26.9106
80.9	11.87
81.12	27.4361
81.34	36.4462
81.56	10.5943
81.78	19.8013
82	25.3711
82.22	40.0431
82.44	12.6645
82.66	1.76814
82.88	22.6521
83.1	5.14616
83.32	33.0349
83.54	22.449
83.76	2.97694
83.98	8.57789
84.2	14.5395
84.42	5.95158
84.64	28.8206
84.86	13.4522
85.08	14.7646
85.3	23.0973
85.52	8.56172
85.74	15.4161
85.96	17.7574
86.18	14.8282
86.4	25.8788
86.62	25.6131
86.84	14.2305
87.06	31.2278
87.28	25.4338
87.5	19.4086
87.72	33.1996
87.94	8.11654
88.16	11.1065
88.38	20.0491
88.6	50.7949
88.82	20.1397
89.04	11.5884
89.26	20.9794
89.48	4.54193
89.7	3.50442
89.92	21.8988
