Measurement: Powder, Xray Data XY Processed
Mineral: Blodite
Rruff sample: R050341
Ideal chemistry: Na_2_Mg(S^6+^O_4_)_2_4H_2_O
Locality: Soda Lake, San Luis Obispo County, California, USA
Source: George Rossman
Description: Gray to colorless equant crystal
Diffraction sample description: Powder
Measured chemistry: Na_2.00_Mg_1.00_(S_1.00_O_4_)_2_Â·4H_2_O
Cell parameters: a: 11.1285(6) b: 8.2450(3) c: 5.5389(3) alpha: 90. beta: 100.827(5) gamma: 90. volume: 499.18(3) crystal system: monoclinic
x	intensity
5	0
5.22	18.4761
5.44	3.97654
5.66	18.9678
5.88	2.28139
6.1	3.96484
6.32	14.6635
6.54	19.4078
6.76	9.03682
6.98	3.45342
7.2	12.3979
7.42	9.51492
7.64	5.36844
7.86	12.0377
8.08	3.54711
8.3	9.08669
8.52	0.532486
8.74	11.7626
8.96	1.56863
9.18	1.717
9.4	7.33901
9.62	1.53777
9.84	7.14121
10.06	6.18335
10.28	4.3048
10.5	6.35145
10.72	1.58362
10.94	5.58327
11.16	9.87725
11.38	6.98432
11.6	5.97384
11.82	1.06779
12.04	4.94701
12.26	9.30998
12.48	0.230064
12.7	3.27857
12.92	6.25964
13.14	10.4269
13.36	8.44405
13.58	0.440286
13.8	5.5246
14.02	10.507
14.24	12.6075
14.46	6.62397
14.68	8.35852
14.9	5.35612
15.12	8.27804
15.34	5.3706
15.56	2.26256
15.78	6.26099
16	8.44639
16.22	17.6119
16.44	7.72998
16.66	4.66372
16.88	2.76957
17.1	3.82183
17.32	1.9476
17.54	10.1114
17.76	8.85102
17.98	0.586363
18.2	2.26678
18.42	2.58215
18.64	3.87506
18.86	7.21021
19.08	5.62003
19.3	13.2255
19.52	711.539
19.74	28.9641
19.96	24.4958
20.18	0.912354
20.4	7.79986
20.62	7.71476
20.84	220.917
21.06	3.57513
21.28	3.97238
21.5	3.80431
21.72	1.49484
21.94	3.92537
22.16	5.4146
22.38	50.6784
22.6	3.33027
22.82	7.0438
23.04	8.54168
23.26	8.16058
23.48	140.231
23.7	12.4981
23.92	1.35366
24.14	12.3094
24.36	3.63875
24.58	15.8604
24.8	25.9417
25.02	9.11312
25.24	7.75915
25.46	0.952421
25.68	7.52221
25.9	9.86771
26.12	0.916523
26.34	2.46112
26.56	1.91977
26.78	114.25
27	24.8137
27.22	549.813
27.44	424.827
27.66	33.1084
27.88	12.0785
28.1	2.21938
28.32	2.41707
28.54	5.90309
28.76	2.32503
28.98	15.488
29.2	3.69202
29.42	8.89716
29.64	1.88058
29.86	1.47807
30.08	73.6359
30.3	15.0602
30.52	5.45756
30.74	1.52058
30.96	6.65347
31.18	4.77015
31.4	8.13382
31.62	1.95748
31.84	12.5214
32.06	0.7057
32.28	0.959076
32.5	2.56504
32.72	26.5887
32.94	111.964
33.16	2.51944
33.38	56.4307
33.6	11.7492
33.82	79.4702
34.04	62.7326
34.26	6.52384
34.48	4.55962
34.7	47.0301
34.92	24.1803
35.14	8.9816
35.36	4.80113
35.58	4.15664
35.8	7.39596
36.02	2.86282
36.24	0.808975
36.46	7.47973
36.68	16.3572
36.9	8.41781
37.12	5.44255
37.34	4.14745
37.56	1.19126
37.78	3.92342
38	3.80683
38.22	8.66146
38.44	3.52689
38.66	6.40655
38.88	19.1142
39.1	22.0639
39.32	27.9365
39.54	14.1935
39.76	56.0385
39.98	2.52009
40.2	5.42642
40.42	3.22603
40.64	6.02698
40.86	3.79231
41.08	4.55405
41.3	8.27743
41.52	10.2669
41.74	35.1159
41.96	15.6201
42.18	7.58011
42.4	11.9957
42.62	10.1044
42.84	34.3252
43.06	21.6413
43.28	2.19299
43.5	0.948898
43.72	1.974
43.94	8.76959
44.16	1.13557
44.38	5.21518
44.6	6.77555
44.82	59.1313
45.04	3.62798
45.26	1.42623
45.48	21.943
45.7	19.6655
45.92	0.396571
46.14	1.2424
46.36	94.6418
46.58	12.132
46.8	5.97871
47.02	77.2774
47.24	67.6336
47.46	15.9613
47.68	10.2112
47.9	12.353
48.12	0.511618
48.34	2.74612
48.56	3.41442
48.78	3.5085
49	33.5858
49.22	11.6494
49.44	2.53893
49.66	2.04461
49.88	7.99581
50.1	3.90007
50.32	24.002
50.54	13.0623
50.76	10.5082
50.98	19.8834
51.2	54.196
51.42	17.6116
51.64	5.97188
51.86	4.47001
52.08	4.8909
52.3	9.14644
52.52	0.361716
52.74	4.51659
52.96	11.4871
53.18	9.58603
53.4	7.46727
53.62	6.4728
53.84	10.2776
54.06	6.00012
54.28	4.37716
54.5	3.48492
54.72	15.4074
54.94	24.334
55.16	43.6065
55.38	23.5964
55.6	12.1291
55.82	2.1949
56.04	3.63127
56.26	3.85559
56.48	13.0488
56.7	4.2993
56.92	6.73687
57.14	6.59385
57.36	12.7928
57.58	20.6787
57.8	7.779
58.02	1.32659
58.24	5.95018
58.46	12.5271
58.68	6.15831
58.9	27.7571
59.12	18.2701
59.34	0.424952
59.56	17.531
59.78	13.0937
60	10.6862
60.22	3.36404
60.44	3.73007
60.66	13.1961
60.88	4.11313
61.1	25.3748
61.32	2.58829
61.54	1.88802
61.76	9.03827
61.98	8.69065
62.2	0.100545
62.42	44.6621
62.64	24.1335
62.86	1.97194
63.08	6.37139
63.3	5.66945
63.52	2.80479
63.74	5.01461
63.96	1.15199
64.18	4.48892
64.4	13.6465
64.62	7.71622
64.84	15.5539
65.06	2.46237
65.28	2.20753
65.5	0.215055
65.72	5.23945
65.94	3.38832
66.16	6.71073
66.38	1.20994
66.6	18.1217
66.82	3.85994
67.04	6.92779
67.26	1.91421
67.48	13.8685
67.7	8.72923
67.92	8.60971
68.14	1.51953
68.36	13.4762
68.58	6.28736
68.8	9.80732
69.02	54.9569
69.24	91.9911
69.46	3.2
69.68	3.24685
69.9	5.28607
70.12	6.41197
70.34	2.54495
70.56	7.78395
70.78	5.72302
71	16.8337
71.22	8.13533
71.44	6.08355
71.66	0.914076
71.88	1.89004
72.1	2.96157
72.32	3.03183
72.54	16.2098
72.76	1.32887
72.98	3.25348
73.2	7.34497
73.42	0.427032
73.64	4.40626
73.86	1.46934
74.08	10.4373
74.3	1.43356
74.52	7.67912
74.74	14.6134
74.96	3.53775
75.18	5.46509
75.4	0.383506
75.62	5.21317
75.84	0.959714
76.06	0.216949
76.28	2.64835
76.5	8.60733
76.72	5.52758
76.94	14.274
77.16	0.180008
77.38	1.99728
77.6	11.9024
77.82	10.866
78.04	8.967
78.26	8.21824
78.48	0.1655
78.7	8.10836
78.92	3.37633
79.14	1.8572
79.36	6.03901
79.58	0.193671
79.8	6.39652
80.02	7.78223
80.24	1.98481
80.46	17.0143
80.68	4.90213
80.9	12.9823
81.12	0.886286
81.34	5.89416
81.56	4.6239
81.78	6.66468
82	2.70028
82.22	4.64967
82.44	3.36903
82.66	2.3442
82.88	5.30064
83.1	9.13776
83.32	6.24055
83.54	2.30328
83.76	6.23637
83.98	0.018316
84.2	11.8358
84.42	18.703
84.64	4.6899
84.86	2.92602
85.08	3.72766
85.3	0.284438
85.52	0.975536
85.74	12.9492
85.96	1.00937
86.18	7.04037
86.4	5.04587
86.62	7.13347
86.84	0.780671
87.06	7.30351
87.28	3.23455
87.5	7.69188
87.72	8.92651
87.94	5.86196
88.16	1.89661
88.38	4.92957
88.6	9.17428
88.82	10.4852
89.04	4.84289
89.26	5.82607
89.48	4.93811
89.7	3.46692
89.92	8.4931
