Measurement: Powder, Xray Data XY Processed
Mineral: Boleite
Rruff sample: R050022
Ideal chemistry: KAg^1+^_9_Pb^2+^_26_Cu^2+^_24_Cl_62_(OH)_48_
Locality: Amelia mine, Boleo, Baja California, Mexico
Source: Eugene Schlepp
Description: Dark blue colored interpenetrating cubes
Diffraction sample description: Powder
Cell parameters: a: 15.2890(3) b: 15.2890(3) c: 15.2890(3) alpha: 90. beta: 90. gamma: 90. volume: 3573.8(2) crystal system: cubic
x	intensity
5	0
5.22	9.713
5.44	8.83
5.66	1.906
5.88	10.499
6.1	8.357
6.32	3.388
6.54	0.245
6.76	10.223
6.98	4.361
7.2	5.401
7.42	6.2
7.64	2.649
7.86	7.855
8.08	4.101
8.3	3.14
8.52	9.977
8.74	4.105
8.96	8.126
9.18	7.018
9.4	1.07
9.62	7.204
9.84	2.34
10.06	32.132
10.28	12.227
10.5	3.187
10.72	3.228
10.94	0.235
11.16	13.356
11.38	15.518
11.6	8.623
11.82	8.406
12.04	0.188
12.26	11.21
12.48	6.971
12.7	0.284
12.92	17.498
13.14	3.446
13.36	2.742
13.58	7.548
13.8	6.397
14.02	4.446
14.24	5.654
14.46	1.23
14.68	3.939
14.9	11.106
15.12	0.119
15.34	5.004
15.56	2.042
15.78	11.544
16	2.366
16.22	2.846
16.44	10.329
16.66	5.932
16.88	6.337
17.1	4.848
17.32	13.347
17.54	27.054
17.76	9.159
17.98	2.118
18.2	6.438
18.42	28.306
18.64	5.822
18.86	1.901
19.08	0.15
19.3	21.768
19.52	7.745
19.74	15.177
19.96	8.106
20.18	341.719
20.4	10.665
20.62	2.241
20.84	9.526
21.06	33.157
21.28	6.353
21.5	2.484
21.72	7.517
21.94	0.015
22.16	0.797
22.38	0.345
22.6	7.455
22.82	1.151
23.04	3.906
23.26	86.29
23.48	21.818
23.7	4.331
23.92	10.282
24.14	23.199
24.36	8.293
24.58	11.449
24.8	25.09
25.02	7.064
25.24	17.876
25.46	130.229
25.68	9.436
25.9	0.175
26.12	34.581
26.34	9.705
26.56	3.894
26.78	18.369
27	7.556
27.22	5.413
27.44	13.321
27.66	7.599
27.88	2.326
28.1	7.059
28.32	11.759
28.54	19.611
28.76	20.215
28.98	12.183
29.2	29.585
29.42	5.243
29.64	1.877
29.86	28.108
30.08	10.405
30.3	17.401
30.52	30.459
30.74	6.491
30.96	6.411
31.18	1.561
31.4	15.844
31.62	51.936
31.84	10.039
32.06	11.578
32.28	8.939
32.5	10.628
32.72	7.13
32.94	7.689
33.16	222.796
33.38	17.199
33.6	9.567
33.82	6.617
34.04	4.123
34.26	22.631
34.48	16.012
34.7	59.173
34.92	3.9
35.14	6.139
35.36	79.303
35.58	0.183
35.8	4.662
36.02	12.915
36.24	24.978
36.46	10.042
36.68	2.872
36.9	6.175
37.12	7.847
37.34	0.604
37.56	24.956
37.78	86.667
38	13.233
38.22	22.437
38.44	10.491
38.66	134.601
38.88	7.686
39.1	85.454
39.32	8.486
39.54	8.828
39.76	13.988
39.98	0.574
40.2	2.056
40.42	5.274
40.64	5.313
40.86	13.145
41.08	9.806
41.3	9.959
41.52	7.149
41.74	14.118
41.96	15.449
42.18	13.56
42.4	9.233
42.62	33.32
42.84	23.802
43.06	11.216
43.28	10.261
43.5	31.334
43.72	11.204
43.94	3.428
44.16	1.644
44.38	16.271
44.6	12.342
44.82	14.487
45.04	5.959
45.26	18.587
45.48	25.403
45.7	60.975
45.92	4.851
46.14	12.455
46.36	4.753
46.58	12.854
46.8	12.085
47.02	9.238
47.24	1.746
47.46	5.057
47.68	32.765
47.9	6.653
48.12	6.346
48.34	6.757
48.56	1.231
48.78	13.287
49	6.446
49.22	27.614
49.44	2.481
49.66	4.068
49.88	0.933
50.1	4.063
50.32	9.889
50.54	11.636
50.76	44.335
50.98	13.369
51.2	13.111
51.42	8.997
51.64	0.944
51.86	2.902
52.08	14.127
52.3	27.216
52.52	6.291
52.74	9.385
52.96	9.614
53.18	9.774
53.4	10.707
53.62	21.693
53.84	18.488
54.06	6.271
54.28	4.564
54.5	2.522
54.72	37.739
54.94	5.316
55.16	9.634
55.38	5.113
55.6	9.33
55.82	10.567
56.04	3.913
56.26	0.233
56.48	6.547
56.7	5.547
56.92	7.194
57.14	4.375
57.36	11.032
57.58	10.985
57.8	7.556
58.02	5.484
58.24	6.255
58.46	6.487
58.68	1.288
58.9	3.881
59.12	8.361
59.34	0.378
59.56	4.301
59.78	5.995
60	4.74
60.22	38.925
60.44	11.403
60.66	22.617
60.88	17.087
61.1	20.156
61.32	14.544
61.54	3.757
61.76	5.79
61.98	11.841
62.2	9.053
62.42	10.48
62.64	14.073
62.86	32.025
63.08	13.205
63.3	8.549
63.52	7.377
63.74	3.966
63.96	5.15
64.18	9.252
64.4	12.098
64.62	1.916
64.84	4.481
65.06	0.131
65.28	12.967
65.5	18.678
65.72	25.71
65.94	19.88
66.16	15.99
66.38	8.126
66.6	9.093
66.82	1.682
67.04	17.575
67.26	7.713
67.48	10.739
67.7	9.753
67.92	14.194
68.14	22.269
68.36	2.165
68.58	17.016
68.8	7.475
69.02	8.628
69.24	0.659
69.46	13.227
69.68	14.914
69.9	11.131
70.12	11.941
70.34	8.365
70.56	12.712
70.78	39.764
71	22.795
71.22	6.853
71.44	4.603
71.66	3.874
71.88	9.096
72.1	4.37
72.32	2.27
72.54	4.499
72.76	6.925
72.98	17.278
73.2	21.741
73.42	11.373
73.64	10.496
73.86	15.771
74.08	8.308
74.3	1.453
74.52	4.652
74.74	5.639
74.96	5.578
75.18	5.528
75.4	15.487
75.62	6.225
75.84	0.758
76.06	6.387
76.28	2.623
76.5	0.203
76.72	13.671
76.94	3.566
77.16	17.858
77.38	10.947
77.6	0.215
77.82	12.634
78.04	0.536
78.26	17.285
78.48	6.009
78.7	18.969
78.92	10.627
79.14	6.996
79.36	11.939
79.58	10.121
79.8	16.581
80.02	6.805
80.24	7.174
80.46	9.54
80.68	10.991
80.9	2.884
81.12	2.506
81.34	12.95
81.56	10.207
81.78	0.222
82	3.152
82.22	2.069
82.44	6.921
82.66	1.013
82.88	8.053
83.1	7.875
83.32	6.141
83.54	7.338
83.76	12.094
83.98	3.146
84.2	6.728
84.42	9.586
84.64	2.47
84.86	11.422
85.08	16.404
85.3	13.104
85.52	1.775
85.74	5.531
85.96	4.588
86.18	2.903
86.4	7.222
86.62	16.273
86.84	16.054
87.06	1.22
87.28	6.394
87.5	6.442
87.72	5.077
87.94	1.193
88.16	3.126
88.38	2.023
88.6	1.015
88.82	4.681
89.04	6.858
89.26	1.089
89.48	20.358
89.7	5.694
89.92	22.58
