Measurement: Powder, Xray Data XY Processed
Mineral: Borax
Rruff sample: R070168
Ideal chemistry: Na_2_B_4_O_5_(OH)_4_8H_2_O
Locality: Boron, Kramer District, Kern County, California, USA
Source: Michael Scott
Description: Colorless prismatic single crystal associated with tincalconite
Diffraction sample description: Powder, mixture with tincalconite; a: 11.125(2), c: 21.198(7)
Measured chemistry: Na_2.00_B_4_O_5_(OH)_4_Â·8H_2_O ; = lighter phase. Darker phase is probably tincalconite; B, H, O not measured but estimated by stoichiometry
Cell parameters: a: 11.8774(9) b: 10.6487(3) c: 12.200(1) alpha: 90 beta: 106.581(7) gamma: 90 volume: 1478.9(1) crystal system: monoclinic
x	intensity
5	0
5.22	3.08674
5.44	14.3783
5.66	9.95876
5.88	7.23318
6.1	4.56176
6.32	14.7518
6.54	6.78059
6.76	14.8207
6.98	0.094051
7.2	3.5068
7.42	18.6869
7.64	11.4608
7.86	10.3615
8.08	22.0339
8.3	5.50562
8.52	10.0027
8.74	0.914982
8.96	14.7273
9.18	15.3619
9.4	20.9472
9.62	13.4232
9.84	3.13034
10.06	174.454
10.28	22.5306
10.5	19.9243
10.72	0.600479
10.94	20.4292
11.16	1.91904
11.38	94.4407
11.6	6.56325
11.82	21.8767
12.04	33.2933
12.26	15.7601
12.48	64.4572
12.7	26.1689
12.92	28.5249
13.14	34.0901
13.36	6.23521
13.58	29.3374
13.8	17.825
14.02	18.2324
14.24	12.7053
14.46	24.4292
14.68	37.5496
14.9	266.382
15.12	19.5194
15.34	38.1578
15.56	454.067
15.78	23.9867
16	65.6408
16.22	0.619263
16.44	8.48892
16.66	72.1811
16.88	5.28761
17.1	130.29
17.32	14.9454
17.54	26.6105
17.76	15.4796
17.98	11.3934
18.2	58.4866
18.42	151.84
18.64	31.2128
18.86	90.7375
19.08	24.3613
19.3	5.80263
19.52	4.43859
19.74	40.2232
19.96	29.3265
20.18	70.6482
20.4	141.615
20.62	28.8248
20.84	0.617928
21.06	21.6426
21.28	21.0696
21.5	25.7632
21.72	17.2902
21.94	23.2015
22.16	14.1576
22.38	20.0788
22.6	408.741
22.82	18.0524
23.04	19.2568
23.26	8.90213
23.48	18.3316
23.7	7.16953
23.92	14.9937
24.14	0.630127
24.36	7.94354
24.58	2.83298
24.8	62.1799
25.02	32.8503
25.24	21.9715
25.46	30.095
25.68	10.137
25.9	173.022
26.12	3.20438
26.34	32.3872
26.56	12.8568
26.78	76.7762
27	2.91417
27.22	15.9703
27.44	0.490097
27.66	26.2958
27.88	24.7827
28.1	38.1269
28.32	16.563
28.54	11.1977
28.76	5.13594
28.98	23.1405
29.2	72.1003
29.42	17.603
29.64	11.1963
29.86	66.5544
30.08	167.509
30.3	30.3514
30.52	145.945
30.74	54.6106
30.96	41.0741
31.18	15.78
31.4	117.629
31.62	516.174
31.84	8.73742
32.06	3.18234
32.28	25.4784
32.5	41.0886
32.72	18.7295
32.94	21.3032
33.16	10.9036
33.38	34.4151
33.6	20.2862
33.82	17.2455
34.04	34.703
34.26	2.86049
34.48	26.7506
34.7	66.5265
34.92	149.101
35.14	213.491
35.36	17.5495
35.58	8.67713
35.8	16.8913
36.02	13.3398
36.24	14.8862
36.46	5.22252
36.68	27.4132
36.9	16.3418
37.12	19.0472
37.34	12.2288
37.56	14.7805
37.78	39.9175
38	15.8327
38.22	7.74228
38.44	67.6786
38.66	70.1195
38.88	11.4718
39.1	17.3236
39.32	7.43843
39.54	10.2489
39.76	1.64443
39.98	51.0038
40.2	16.4168
40.42	1.88895
40.64	14.1916
40.86	22.6851
41.08	58.3401
41.3	73.5666
41.52	3.15934
41.74	11.4117
41.96	19.6955
42.18	33.6054
42.4	10.5261
42.62	3.46784
42.84	14.2603
43.06	11.7037
43.28	11.5635
43.5	40.7558
43.72	23.4756
43.94	9.2167
44.16	0.812649
44.38	38.6339
44.6	0.800552
44.82	25.3099
45.04	48.0699
45.26	42.9151
45.48	1.00043
45.7	8.67792
45.92	19.969
46.14	54.1594
46.36	3.77853
46.58	31.7426
46.8	41.5108
47.02	23.5455
47.24	8.91776
47.46	11.493
47.68	27.524
47.9	47.2438
48.12	30.9556
48.34	7.59294
48.56	21.1493
48.78	11.4942
49	25.2728
49.22	57.8151
49.44	6.88256
49.66	10.7824
49.88	1.97375
50.1	1.44091
50.32	3.35972
50.54	5.31447
50.76	29.1861
50.98	21.1958
51.2	16.717
51.42	14.1815
51.64	4.1358
51.86	1.51235
52.08	35.1408
52.3	11.8007
52.52	7.00275
52.74	6.69619
52.96	26.3806
53.18	13.1714
53.4	12.9416
53.62	7.94894
53.84	39.8317
54.06	33.3314
54.28	10.9095
54.5	17.3638
54.72	1.82192
54.94	4.90252
55.16	2.19706
55.38	20.5697
55.6	15.0665
55.82	17.584
56.04	15.5614
56.26	9.47357
56.48	9.1917
56.7	8.81311
56.92	16.46
57.14	14.485
57.36	23.4829
57.58	7.11749
57.8	19.772
58.02	18.4977
58.24	11.3598
58.46	11.2427
58.68	14.1874
58.9	18.1335
59.12	14.9003
59.34	12.7012
59.56	4.10376
59.78	12.1149
60	10.1623
60.22	2.46626
60.44	0.615509
60.66	13.229
60.88	7.33453
61.1	19.9227
61.32	8.84775
61.54	6.78241
61.76	11.1164
61.98	8.4902
62.2	2.10102
62.42	12.6119
62.64	13.1951
62.86	12.6081
63.08	13.8256
63.3	13.2428
63.52	7.41533
63.74	12.851
63.96	0.958683
64.18	15.9794
64.4	17.7673
64.62	6.67003
64.84	5.47256
65.06	6.29091
65.28	7.58703
65.5	3.9004
65.72	4.86651
65.94	19.0337
66.16	16.5507
66.38	15.3908
66.6	13.5945
66.82	8.70528
67.04	12.9122
67.26	4.1487
67.48	0.764444
67.7	0.977186
67.92	16.8351
68.14	8.11993
68.36	3.66766
68.58	10.3035
68.8	7.247
69.02	2.73859
69.24	10.728
69.46	12.0176
69.68	3.88466
69.9	10.0028
70.12	2.04342
70.34	11.7926
70.56	3.65042
70.78	9.64319
71	6.0152
71.22	22.038
71.44	6.91184
71.66	7.90624
71.88	11.07
72.1	3.32876
72.32	16.5503
72.54	0.629986
72.76	1.63457
72.98	7.70735
73.2	9.43539
73.42	8.31362
73.64	8.16272
73.86	0.268093
74.08	11.6486
74.3	5.53184
74.52	7.67671
74.74	3.80067
74.96	8.96848
75.18	1.32695
75.4	11.8758
75.62	11.168
75.84	10.3197
76.06	13.8485
76.28	6.7964
76.5	3.27533
76.72	1.81097
76.94	9.00223
77.16	5.66873
77.38	11.1786
77.6	6.9267
77.82	8.48182
78.04	12.2778
78.26	6.4605
78.48	5.16462
78.7	14.203
78.92	9.1789
79.14	4.38475
79.36	1.63946
79.58	1.50432
79.8	10.7904
80.02	9.87924
80.24	7.30672
80.46	9.55659
80.68	1.62176
80.9	3.29942
81.12	6.03268
81.34	13.1183
81.56	9.8989
81.78	5.67727
82	16.3977
82.22	6.29771
82.44	11.4816
82.66	8.08351
82.88	0.841825
83.1	15.5837
83.32	12.8602
83.54	8.07708
83.76	4.9196
83.98	9.27798
84.2	12.1963
84.42	17.1533
84.64	18.0482
84.86	2.73392
85.08	2.29737
85.3	3.63497
85.52	7.99119
85.74	12.9418
85.96	13.0299
86.18	10.103
86.4	14.9803
86.62	9.02426
86.84	14.1865
87.06	9.50146
87.28	6.72379
87.5	9.65453
87.72	7.88902
87.94	11.2937
88.16	17.6219
88.38	0.883373
88.6	13.3348
88.82	9.37798
89.04	13.6432
89.26	10.2681
89.48	5.0493
89.7	8.84389
89.92	0.094517
