Measurement: Powder, Xray Data XY Processed
Mineral: Bornite
Rruff sample: R050322
Ideal chemistry: Cu^1+^_5_Fe^3+^S^2-^_4_
Locality: Bethlehem Copper mine, Highland Valley, Logan Lake, British Columbia, Canada
Source: Lloyd Twaites
Description: Irridescent purple metallic massive
Diffraction sample description: Powder
Measured chemistry: Cu_4.97_Fe_1.03_S_4.00_
Cell parameters: a: 5.4600(7) b: 5.4600(7) c: 5.4600(7) alpha: 90 beta: 90 gamma: 90 volume: 162.77(6) crystal system: cubic
x	intensity
5	0
5.22	24.442
5.44	9.137
5.66	23.158
5.88	9.541
6.1	12.294
6.32	5.814
6.54	11.211
6.76	10.08
6.98	1.786
7.2	11.847
7.42	0.537
7.64	11.119
7.86	17.581
8.08	20.111
8.3	10.218
8.52	3.939
8.74	9.831
8.96	7.708
9.18	15.401
9.4	17.085
9.62	23.389
9.84	19.92
10.06	13.633
10.28	8.795
10.5	16.052
10.72	29.479
10.94	22.134
11.16	19.287
11.38	3.228
11.6	9.961
11.82	25.048
12.04	6.471
12.26	2.332
12.48	21.414
12.7	2.301
12.92	6.495
13.14	16.268
13.36	1.921
13.58	4.919
13.8	29.102
14.02	16.54
14.24	5.913
14.46	9.893
14.68	0.462
14.9	30.721
15.12	13.686
15.34	17.81
15.56	3.946
15.78	12.471
16	14.904
16.22	8.189
16.44	22.483
16.66	8.113
16.88	15.704
17.1	17.322
17.32	0.878
17.54	9.629
17.76	15.465
17.98	10.02
18.2	24.872
18.42	18.009
18.64	16.849
18.86	10.054
19.08	19.141
19.3	19.978
19.52	3.719
19.74	5.805
19.96	12.941
20.18	9.861
20.4	15.058
20.62	4.006
20.84	8.539
21.06	10.518
21.28	15.975
21.5	22.903
21.72	4.628
21.94	13.278
22.16	23.676
22.38	3.435
22.6	6.813
22.82	7.915
23.04	1.246
23.26	4.664
23.48	22.497
23.7	23.48
23.92	22.858
24.14	9.403
24.36	19.171
24.58	4.622
24.8	0.393
25.02	0.852
25.24	11.103
25.46	5.014
25.68	6.163
25.9	2.261
26.12	26.854
26.34	14.801
26.56	26.651
26.78	17.407
27	51.675
27.22	22.27
27.44	5.16
27.66	10.072
27.88	25.907
28.1	14.337
28.32	96.379
28.54	45.643
28.76	13.463
28.98	11.735
29.2	4.452
29.42	18.161
29.64	17.155
29.86	5.481
30.08	3.294
30.3	7.645
30.52	5.167
30.74	14.032
30.96	17.454
31.18	7.382
31.4	19.579
31.62	1.906
31.84	25.771
32.06	28.497
32.28	5.472
32.5	20.427
32.72	46.338
32.94	46.065
33.16	30.35
33.38	12.889
33.6	14.809
33.82	0.168
34.04	21.431
34.26	12.55
34.48	9.291
34.7	18.268
34.92	2.438
35.14	24.384
35.36	10.359
35.58	24.941
35.8	40.991
36.02	45.497
36.24	26.359
36.46	13.271
36.68	19.221
36.9	11.371
37.12	6.01
37.34	4.972
37.56	17.84
37.78	27.212
38	4.84
38.22	3.12
38.44	5.072
38.66	11.044
38.88	27.217
39.1	32.846
39.32	19.104
39.54	8.218
39.76	11.031
39.98	18.25
40.2	5.704
40.42	2.09
40.64	5.942
40.86	9.817
41.08	16.394
41.3	14.965
41.52	11.543
41.74	21.034
41.96	15.345
42.18	23.11
42.4	17.957
42.62	24.592
42.84	5.555
43.06	3.587
43.28	0.693
43.5	8.313
43.72	11.928
43.94	16.669
44.16	12.693
44.38	11.572
44.6	21.972
44.82	13.669
45.04	32.881
45.26	9.559
45.48	12.018
45.7	17.935
45.92	2.863
46.14	10.955
46.36	11.351
46.58	29.349
46.8	68.832
47.02	183.085
47.24	82.251
47.46	37.961
47.68	33.242
47.9	2.226
48.12	6.552
48.34	18.765
48.56	18.698
48.78	15.046
49	8.453
49.22	19.948
49.44	1.48
49.66	4.096
49.88	12.544
50.1	28.714
50.32	30.723
50.54	24.763
50.76	18.288
50.98	17.569
51.2	18.979
51.42	19.425
51.64	38.35
51.86	22.536
52.08	4.448
52.3	18.981
52.52	13.509
52.74	14.096
52.96	17.98
53.18	22.9
53.4	12.125
53.62	19.98
53.84	11.654
54.06	17.273
54.28	20.623
54.5	17.482
54.72	5.056
54.94	18.516
55.16	7.128
55.38	13.362
55.6	26.056
55.82	42.434
56.04	7.614
56.26	13.297
56.48	18.974
56.7	12.006
56.92	33.457
57.14	17.853
57.36	17.475
57.58	18.306
57.8	2.425
58.02	2.747
58.24	23.03
58.46	24.88
58.68	6.809
58.9	9.902
59.12	2.702
59.34	0.431
59.56	12.554
59.78	4.229
60	28.189
60.22	24.656
60.44	13.834
60.66	25.81
60.88	19.651
61.1	5.493
61.32	16.286
61.54	10.801
61.76	17.69
61.98	14.762
62.2	7.427
62.42	21.944
62.64	10.834
62.86	8.669
63.08	17.807
63.3	1.44
63.52	20.736
63.74	2.302
63.96	23.858
64.18	11.969
64.4	1.641
64.62	13.718
64.84	1.54
65.06	8.283
65.28	4.633
65.5	20.257
65.72	14.983
65.94	33.818
66.16	8.452
66.38	17.436
66.6	0.637
66.82	9.303
67.04	15.107
67.26	24.893
67.48	38.097
67.7	9.478
67.92	2.927
68.14	14.27
68.36	21.753
68.58	17.912
68.8	21.01
69.02	13.163
69.24	4.69
69.46	15.11
69.68	13.374
69.9	9.403
70.12	23.894
70.34	7.18
70.56	5.829
70.78	23.729
71	16.13
71.22	14.507
71.44	17.834
71.66	16.693
71.88	21.255
72.1	27.842
72.32	29.255
72.54	8.199
72.76	31.911
72.98	18.196
73.2	22.874
73.42	0.416
73.64	23.785
73.86	9.284
74.08	0.58
74.3	27.629
74.52	13.16
74.74	17.654
74.96	29.401
75.18	15.51
75.4	18.389
75.62	31.938
75.84	24.264
76.06	12.955
76.28	6.357
76.5	19.562
76.72	5.474
76.94	20.336
77.16	32.775
77.38	1.063
77.6	22.838
77.82	16.767
78.04	21.904
78.26	7.52
78.48	5.096
78.7	32.895
78.92	25.681
79.14	10.531
79.36	13.632
79.58	15.82
79.8	24.006
80.02	14.11
80.24	20.566
80.46	8.598
80.68	1.267
80.9	15.926
81.12	16.413
81.34	6.801
81.56	13.981
81.78	32.587
82	41.284
82.22	14.971
82.44	5.119
82.66	12.302
82.88	3.183
83.1	10.579
83.32	18.124
83.54	11.392
83.76	15.143
83.98	14.878
84.2	4.349
84.42	7.221
84.64	8.083
84.86	13.387
85.08	21.781
85.3	18.096
85.52	12.183
85.74	26.726
85.96	15.515
86.18	0.879
86.4	6.607
86.62	3.017
86.84	24.573
87.06	30.092
87.28	23.613
87.5	12.779
87.72	16.658
87.94	18.155
88.16	16.916
88.38	2.591
88.6	18.199
88.82	18.03
89.04	12.35
89.26	1.132
89.48	23.02
89.7	20.197
89.92	14.289
