Measurement: Powder, Xray Data XY Processed
Mineral: Borocookeite
Rruff sample: R080076
Ideal chemistry: LiAl_4_(Si_3_B)O_10_(OH)_8_
Locality: Malkhan Range, Central Transbaikal Region, Russia
Source: Michael Scott
Description: Cream-colored earthy coating on tourmaline crystal
Diffraction sample description: Powder, using Mo radiation
x	intensity
5.43	0
5.51	9.29259
5.59	85.6004
5.67	210.11
5.75	363.291
5.83	389.589
5.91	280.609
5.99	142.367
6.07	53.7219
6.15	1.43406
6.23	10.333
6.31	1.96816
6.39	7.06252
6.47	26.1902
6.55	43.3947
6.63	56.8809
6.71	40.4961
6.79	54.4927
6.87	46.9145
6.95	26.9302
7.03	34.2354
7.11	9.77881
7.19	9.0879
7.27	5.34398
7.35	1.14905
7.43	1.60325
7.51	2.41344
7.59	2.12443
7.67	0.420818
7.75	1.19799
7.83	5.30373
7.91	0.287041
7.99	1.89187
8.07	5.88154
8.15	4.16945
8.23	3.86326
8.31	13.8781
8.39	25.115
8.47	87.6425
8.55	320.73
8.63	665.224
8.71	879.714
8.79	785.941
8.87	531.921
8.95	357.27
9.03	473.773
9.11	809.198
9.19	1215.13
9.27	1464.64
9.35	1431.79
9.43	1289.58
9.51	1163.82
9.59	1084.13
9.67	989.2
9.75	936.02
9.83	869.134
9.91	758.045
9.99	689.28
10.07	608.624
10.15	565.699
10.23	607.955
10.31	604.754
10.39	536.387
10.47	450.355
10.55	368.702
10.63	351.025
10.71	327.275
10.79	326.977
10.87	300.859
10.95	291.889
11.03	266.995
11.11	298.822
11.19	278.173
11.27	261.242
11.35	245.588
11.43	306.3
11.51	454.314
11.59	685.249
11.67	787.238
11.75	716.491
11.83	558.476
11.91	393.982
11.99	255.213
12.07	155.74
12.15	131.062
12.23	100.985
12.31	53.4122
12.39	17.6168
12.47	10.5815
12.55	6.37289
12.63	1.78456
12.71	0.558385
12.79	6.31351
12.87	7.6909
12.95	18.3658
13.03	22.4936
13.11	3.47466
13.19	9.776
13.27	3.75347
13.35	3.26538
13.43	1.80146
13.51	17.1476
13.59	49.8224
13.67	65.4678
13.75	22.0939
13.83	1.52895
13.91	0.51842
13.99	0.160343
14.07	3.21353
14.15	11.5767
14.23	2.71237
14.31	2.31392
14.39	40.2579
14.47	111.172
14.55	161.695
14.63	125.955
14.71	56.9697
14.79	2.22318
14.87	0.279132
14.95	2.9391
15.03	2.70772
15.11	1.31987
15.19	4.03416
15.27	2.248
15.35	2.65246
15.43	2.55529
15.51	8.77248
15.59	83.4184
15.67	276.677
15.75	532.674
15.83	784.141
15.91	946.609
15.99	995.671
16.07	922.835
16.15	723.231
16.23	691.962
16.31	909.773
16.39	1085.38
16.47	1046.37
16.55	746.594
16.63	512.354
16.71	361.79
16.79	248.771
16.87	136.233
16.95	85.2461
17.03	83.8007
17.11	143.673
17.19	208.659
17.27	272.05
17.35	275.365
17.43	318.178
17.51	469.368
17.59	783.632
17.67	1184.34
17.75	1322.02
17.83	1081.17
17.91	627.196
17.99	277.673
18.07	140.537
18.15	124.635
18.23	149.509
18.31	139.337
18.39	127.526
18.47	121.174
18.55	113.765
18.63	111.249
18.71	109.567
18.79	82.9782
18.87	67.7165
18.95	48.4696
19.03	38.7284
19.11	29.1964
19.19	20.0816
19.27	36.836
19.35	5.59577
19.43	21.5283
19.51	2.63106
19.59	3.90321
19.67	1.7171
19.75	0.774163
19.83	4.87868
19.91	5.94896
19.99	29.0065
20.07	58.8759
20.15	85.6094
20.23	138.954
20.31	222.04
20.39	246.179
20.47	222.433
20.55	185.754
20.63	143.63
20.71	189.262
20.79	314.068
20.87	499.289
20.95	667.439
21.03	643.151
21.11	493.993
21.19	325.07
21.27	158.408
21.35	84.6432
21.43	48.8537
21.51	31.5656
21.59	0.314951
21.67	20.354
21.75	18.5597
21.83	2.62112
21.91	4.82254
21.99	3.64195
22.07	0.161522
22.15	1.23979
22.23	4.49908
22.31	9.26554
22.39	1.8728
22.47	1.44651
22.55	5.8526
22.63	1.79984
22.71	9.33227
22.79	0.939376
22.87	8.45518
22.95	16.1932
23.03	14.9218
23.11	24.2891
23.19	13.0461
23.27	9.45991
23.35	5.55293
23.43	0.464457
23.51	1.97505
23.59	0.97962
23.67	1.65235
23.75	0.336943
23.83	0.88094
23.91	9.65817
23.99	23.1847
24.07	28.3182
24.15	57.5911
24.23	120.147
24.31	183.807
24.39	264.303
24.47	313.81
24.55	315.586
24.63	321.568
24.71	314.758
24.79	289.506
24.87	311.265
24.95	365.37
25.03	477.043
25.11	584.527
25.19	622.145
25.27	580.278
25.35	429.156
25.43	279.721
25.51	180.87
25.59	126.897
25.67	92.1294
25.75	53.3837
25.83	62.5692
25.91	46.2668
25.99	9.27655
26.07	4.78759
26.15	15.8845
26.23	0.469681
26.31	3.87849
26.39	3.14607
26.47	2.975
26.55	9.44997
26.63	70.0124
26.71	112.439
26.79	115.797
26.87	95.2951
26.95	96.2581
27.03	45.7104
27.11	3.06389
27.19	64.6171
27.27	117.068
27.35	267.978
27.43	367.067
27.51	454.761
27.59	571.816
27.67	680.359
27.75	793.183
27.83	716.27
27.91	503.761
27.99	299.457
28.07	153.493
28.15	79.0485
28.23	79.8914
28.31	100.09
28.39	148.748
28.47	125.238
28.55	109.361
28.63	62.0364
28.71	8.52572
28.79	2.4583
28.87	16.7881
28.95	29.4624
29.03	100.198
29.11	130.023
29.19	136.836
29.27	109.772
29.35	66.4696
29.43	52.6927
29.51	3.12152
29.59	4.91297
29.67	2.34938
29.75	1.52827
29.83	4.26426
29.91	27.7743
29.99	39.6587
30.07	40.6467
30.15	70.9794
30.23	54.3703
30.31	33.0123
30.39	0.948208
30.47	0.554865
30.55	1.28771
30.63	3.73368
30.71	0.345829
30.79	0.454034
30.87	0.796007
30.95	1.95011
31.03	0.272214
31.11	0.192942
31.19	0.073657
31.27	30.9975
31.35	52.493
31.43	79.7651
31.51	132.758
31.59	254.788
31.67	354.41
31.75	408.126
31.83	444.533
31.91	379.807
31.99	291.542
32.07	242.906
32.15	217.341
32.23	216.579
32.31	214.369
32.39	212.405
32.47	239.786
32.55	268.606
32.63	187.233
32.71	179.118
32.79	125.185
32.87	133.354
32.95	122.596
33.03	141.464
33.11	146.998
33.19	180.359
33.27	133.743
33.35	144.579
33.43	134.821
33.51	164.612
33.59	174.7
33.67	148.836
33.75	155.308
33.83	141.33
33.91	126.328
33.99	117.353
34.07	89.3041
34.15	36.8965
34.23	36.948
34.31	31.7671
34.39	19.2511
34.47	13.2343
34.55	1.90356
34.63	10.7804
34.71	19.0445
34.79	1.22726
34.87	11.7418
34.95	28.893
35.03	0.479704
35.11	4.92826
35.19	0.528869
35.27	13.9661
35.35	10.7311
35.43	11.9901
35.51	0
