Measurement: Powder, Xray Data XY Processed
Mineral: Botryogen
Rruff sample: R070581
Ideal chemistry: MgFe^3+^(S^6+^O_4_)_2_(OH)7H_2_O
Locality: Redington mine, Knoxville, Napa County, California, USA
Source: James Shigley
Description: Red-orange aggregate of pseudo-rhombohedral crystals
Diffraction sample description: Powder
Measured chemistry: (Mg_0.99_Mn_0.01_)_Σ=1_(Fe^3+^_0.97_Al_0.03_)_Σ=1_(S_1.00_O_4_)_2_(OH)·7H_2_O; OH estimated by charge balance; H_2_O by difference
Cell parameters: a: 10.5090(7) b: 17.886(2) c: 7.1269(4) alpha: 90 beta: 100.22(1) gamma: 90 volume: 1318.3(1) crystal system: monoclinic
x	intensity
5	0
5.22	11.4414
5.44	7.79459
5.66	37.7498
5.88	37.1637
6.1	9.43247
6.32	12.5606
6.54	3.47811
6.76	20.7034
6.98	31.2067
7.2	24.0576
7.42	15.8227
7.64	0.163498
7.86	32.3391
8.08	9.55576
8.3	15.4202
8.52	2.73718
8.74	7.89701
8.96	17.7147
9.18	28.0585
9.4	13.2705
9.62	9.53745
9.84	46.7502
10.06	1138.94
10.28	8.84557
10.5	12.3279
10.72	20.1168
10.94	16.6409
11.16	6.32013
11.38	19.0152
11.6	8.71773
11.82	8.22823
12.04	11.1686
12.26	14.8474
12.48	18.2584
12.7	8.11402
12.92	11.4206
13.14	14.234
13.36	2.27956
13.58	11.6595
13.8	5.80745
14.02	26.9692
14.24	19.7118
14.46	3.31406
14.68	3.49762
14.9	17.2139
15.12	10.4419
15.34	9.1216
15.56	16.1469
15.78	18.0538
16	8.21679
16.22	69.2128
16.44	13.6797
16.66	45.7966
16.88	24.701
17.1	12.1768
17.32	203.183
17.54	25.189
17.76	13.2345
17.98	1.75024
18.2	15.1058
18.42	11.1823
18.64	24.4437
18.86	7.32949
19.08	19.7717
19.3	6.70756
19.52	16.4746
19.74	17.7571
19.96	39.0485
20.18	26.5612
20.4	8.74615
20.62	56.5694
20.84	3.11295
21.06	14.828
21.28	0.197281
21.5	16.2839
21.72	24.2312
21.94	18.555
22.16	10.9116
22.38	5.742
22.6	24.3812
22.82	22.5572
23.04	2.48223
23.26	14.9888
23.48	11.3435
23.7	22.9674
23.92	34.7464
24.14	13.6404
24.36	14.2087
24.58	15.977
24.8	14.8643
25.02	8.27551
25.24	9.21043
25.46	18.4529
25.68	5.4624
25.9	6.50481
26.12	32.285
26.34	17.8546
26.56	92.5739
26.78	12.1871
27	6.17184
27.22	8.01725
27.44	45.2533
27.66	7.52142
27.88	234.81
28.1	10.2515
28.32	17.3201
28.54	19.6001
28.76	8.78388
28.98	21.0398
29.2	35.5236
29.42	13.4383
29.64	96.6099
29.86	0.407623
30.08	48.9632
30.3	19.1478
30.52	12.1198
30.74	4.22102
30.96	23.3097
31.18	11.9008
31.4	22.8852
31.62	6.75021
31.84	18.3541
32.06	34.705
32.28	0.869041
32.5	13.5639
32.72	24.0756
32.94	55.6997
33.16	25.3487
33.38	6.02402
33.6	21.7059
33.82	2.41959
34.04	1.84345
34.26	3.13967
34.48	23.6095
34.7	26.6512
34.92	6.35319
35.14	3.95596
35.36	32.2881
35.58	14.5432
35.8	8.03812
36.02	5.37882
36.24	18.1258
36.46	25.0883
36.68	2.43068
36.9	15.5137
37.12	33.0895
37.34	2.44259
37.56	33.5659
37.78	11.0201
38	14.8388
38.22	25.555
38.44	11.9971
38.66	12.0066
38.88	13.7984
39.1	10.4837
39.32	3.77412
39.54	14.4628
39.76	19.9062
39.98	19.04
40.2	8.32893
40.42	20.0108
40.64	23.0134
40.86	21.6125
41.08	11.9787
41.3	3.96609
41.52	17.0348
41.74	12.566
41.96	7.44804
42.18	21.6155
42.4	16.4929
42.62	16.0867
42.84	13.5846
43.06	13.9712
43.28	0.57486
43.5	19.5524
43.72	17.0057
43.94	9.74828
44.16	41.6477
44.38	32.0779
44.6	14.4378
44.82	23.0629
45.04	26.5391
45.26	18.1283
45.48	0.229488
45.7	16.0617
45.92	14.2217
46.14	9.97047
46.36	30.1929
46.58	31.9402
46.8	5.36367
47.02	14.345
47.24	2.54195
47.46	0.841839
47.68	0.183327
47.9	0.50816
48.12	13.7982
48.34	2.69112
48.56	19.3635
48.78	22.8322
49	13.6494
49.22	4.39358
49.44	15.4566
49.66	2.9118
49.88	7.88222
50.1	8.7011
50.32	25.6011
50.54	0.355221
50.76	19.8065
50.98	12.2636
51.2	14.9867
51.42	12.7136
51.64	18.7902
51.86	9.91364
52.08	6.77933
52.3	2.01042
52.52	14.4987
52.74	14.7193
52.96	4.22763
53.18	12.554
53.4	7.78422
53.62	12.7718
53.84	13.6159
54.06	8.68197
54.28	21.2702
54.5	29.8852
54.72	13.1782
54.94	10.7474
55.16	11.9903
55.38	12.4798
55.6	17.3239
55.82	17.8409
56.04	15.298
56.26	17.6866
56.48	21.8925
56.7	15.069
56.92	8.89185
57.14	17.7483
57.36	24.1103
57.58	27.1249
57.8	29.4139
58.02	29.2538
58.24	5.29367
58.46	16.32
58.68	12.4767
58.9	25.4981
59.12	3.49537
59.34	8.73736
59.56	16.1514
59.78	0.98811
60	6.1255
60.22	16.076
60.44	20.5501
60.66	10.1219
60.88	12.1246
61.1	2.49955
61.32	6.85752
61.54	18.1658
61.76	17.5951
61.98	0.608494
62.2	17.0163
62.42	11.3215
62.64	5.07256
62.86	3.51032
63.08	10.1343
63.3	25.7376
63.52	0.413696
63.74	16.2722
63.96	6.30956
64.18	8.98315
64.4	1.64761
64.62	15.9756
64.84	14.7797
65.06	20.132
65.28	12.4886
65.5	5.66016
65.72	17.4652
65.94	21.7681
66.16	4.03972
66.38	10.1891
66.6	6.84935
66.82	18.5462
67.04	19.7441
67.26	11.315
67.48	14.421
67.7	14.5749
67.92	12.2879
68.14	7.16245
68.36	12.4959
68.58	27.0819
68.8	10.6608
69.02	12.5706
69.24	15.9629
69.46	1.90437
69.68	6.88173
69.9	21.9156
70.12	4.04065
70.34	2.4768
70.56	20.6413
70.78	0.340946
71	9.63483
71.22	4.47665
71.44	10.356
71.66	25.4035
71.88	10.4802
72.1	2.99405
72.32	9.81187
72.54	23.2834
72.76	2.0597
72.98	24.6645
73.2	21.7021
73.42	3.9437
73.64	4.37338
73.86	14.8825
74.08	7.61307
74.3	14.7427
74.52	4.64432
74.74	14.409
74.96	17.4445
75.18	16.7522
75.4	23.1397
75.62	28.1903
75.84	4.09671
76.06	9.85173
76.28	13.1389
76.5	14.8529
76.72	21.1081
76.94	13.1911
77.16	10.2544
77.38	10.2845
77.6	6.30058
77.82	11.4257
78.04	21.3757
78.26	2.16681
78.48	7.89616
78.7	12.2842
78.92	12.8815
79.14	12.6237
79.36	17.6436
79.58	26.4777
79.8	0.299366
80.02	19.5207
80.24	16.4599
80.46	7.592
80.68	4.89279
80.9	17.0418
81.12	6.1734
81.34	15.9475
81.56	15.8148
81.78	18.206
82	14.2123
82.22	8.09301
82.44	16.9172
82.66	9.05296
82.88	13.0287
83.1	5.45665
83.32	17.4529
83.54	12.8241
83.76	17.9051
83.98	15.1566
84.2	3.91548
84.42	4.844
84.64	6.99123
84.86	0.554485
85.08	16.6779
85.3	10.8282
85.52	28.6194
85.74	13.2647
85.96	9.27287
86.18	11.9982
86.4	23.3205
86.62	24.0843
86.84	20.7034
87.06	3.23959
87.28	11.5603
87.5	10.9752
87.72	12.9561
87.94	8.30574
88.16	0.412098
88.38	18.2889
88.6	19.6572
88.82	29.6123
89.04	6.25838
89.26	15.0383
89.48	21.7449
89.7	18.2838
89.92	5.44229
