Measurement: Powder, Xray Data XY Processed
Mineral: Boulangerite
Rruff sample: R050436
Ideal chemistry: Pb^2+^_5_Sb^3+^_4_S^2-^_11_
Locality: Noche Buena mine, Noche Buena, Municipio de Mazapil, Zacatecas, Mexico
Source: University of Arizona Mineral Museum
Description: Mass of lead-gray acicular crystals
Diffraction sample description: Single crystal, powder profile is calculated
Measured chemistry: Pb_5.00_Sb_4.00_S_11.00_
Cell parameters: a: 23.58(6) b: 21.25(5) c: 4.037(8) alpha: 90. beta: 90. gamma: 90. volume: 2022(4) crystal system: orthorhombic
x	intensity
5	0
5.22	0
5.44	0
5.66	0.045
5.88	0
6.1	0
6.32	0
6.54	0
6.76	0
6.98	0
7.2	0
7.42	0
7.64	0
7.86	0
8.08	0
8.3	0.497
8.52	0.017
8.74	0
8.96	0
9.18	0.247
9.4	0
9.62	0
9.84	0
10.06	0
10.28	0
10.5	0
10.72	0
10.94	0
11.16	0.301
11.38	0
11.6	0
11.82	0
12.04	0.033
12.26	0
12.48	0
12.7	0
12.92	0
13.14	0.275
13.36	0
13.58	0
13.8	0
14.02	0
14.24	0
14.46	0
14.68	0.859
14.9	0
15.12	0.016
15.34	0
15.56	0.004
15.78	0
16	0
16.22	0
16.44	0
16.66	0.088
16.88	0.676
17.1	1.244
17.32	0.121
17.54	0
17.76	0
17.98	0
18.2	0.001
18.42	0.228
18.64	0
18.86	0
19.08	0
19.3	2.637
19.52	0
19.74	0
19.96	0
20.18	7.952
20.4	0
20.62	0.064
20.84	0
21.06	0
21.28	0.964
21.5	0
21.72	0
21.94	0
22.16	0.371
22.38	0.023
22.6	5.796
22.82	22.91
23.04	6.987
23.26	0.002
23.48	0.005
23.7	3.079
23.92	49.898
24.14	2.066
24.36	0.119
24.58	0
24.8	0.399
25.02	0.002
25.24	0.97
25.46	6.902
25.68	0.981
25.9	7.875
26.12	0.012
26.34	0.07
26.56	6.316
26.78	0.182
27	2.333
27.22	0.055
27.44	0
27.66	25.947
27.88	8.378
28.1	4.161
28.32	0.771
28.54	0
28.76	0.001
28.98	0.004
29.2	0
29.42	23.679
29.64	4.182
29.86	1.971
30.08	17.04
30.3	0.005
30.52	3.972
30.74	0.208
30.96	0.235
31.18	0.003
31.4	0
31.62	30.765
31.84	39.35
32.06	0.325
32.28	19.349
32.5	0
32.72	1.081
32.94	1.776
33.16	8.315
33.38	0.078
33.6	0
33.82	12.058
34.04	0.024
34.26	0.607
34.48	0.014
34.7	3.527
34.92	0.636
35.14	0.219
35.36	0.421
35.58	0.534
35.8	1.509
36.02	0.007
36.24	0.575
36.46	0
36.68	3.492
36.9	0.111
37.12	13.822
37.34	0.669
37.56	0.017
37.78	0.044
38	15.792
38.22	0.455
38.44	9.329
38.66	0.017
38.88	14.683
39.1	0.068
39.32	0.038
39.54	0
39.76	0.001
39.98	0.438
40.2	6.899
40.42	0.686
40.64	1.595
40.86	3.016
41.08	0.127
41.3	0.104
41.52	5.175
41.74	0.152
41.96	6.12
42.18	2.801
42.4	2.034
42.62	1.188
42.84	1.46
43.06	0.576
43.28	0.513
43.5	0.084
43.72	1.029
43.94	0.699
44.16	2.351
44.38	1.28
44.6	4.25
44.82	1.242
45.04	24.265
45.26	4.539
45.48	3.799
45.7	0.076
45.92	0.701
46.14	1.592
46.36	1.853
46.58	0.675
46.8	0.034
47.02	1.418
47.24	11.611
47.46	0.015
47.68	0.305
47.9	0.023
48.12	0.183
48.34	0.293
48.56	4.913
48.78	4.336
49	23.773
49.22	2
49.44	0.651
49.66	0.55
49.88	2.307
50.1	0.316
50.32	0.208
50.54	0.071
50.76	0.39
50.98	2.351
51.2	4.824
51.42	1.295
51.64	9.263
51.86	5.264
52.08	9.852
52.3	3.491
52.52	2.873
52.74	2.538
52.96	2.774
53.18	0.733
53.4	2.962
53.62	1.241
53.84	3.953
54.06	0.665
54.28	0.118
54.5	0.025
54.72	4.092
54.94	2.378
55.16	0.192
55.38	3.719
55.6	0.762
55.82	0.186
56.04	5.034
56.26	3.516
56.48	0.916
56.7	0.009
56.92	0.136
57.14	3.686
57.36	0.378
57.58	0.45
57.8	0.037
58.02	2.396
58.24	1.037
58.46	0.126
58.68	0.293
58.9	0.164
59.12	0.548
59.34	0.059
59.56	0.34
59.78	1.161
60	0.563
60.22	0.081
60.44	0.929
60.66	4.1
60.88	0.919
61.1	0.556
61.32	0.166
61.54	0.609
61.76	1.513
61.98	0.196
62.2	1.508
62.42	2.403
62.64	0.584
62.86	0.047
63.08	0.463
63.3	6.635
63.52	2.487
63.74	0.75
63.96	2.447
64.18	0.863
64.4	0.568
64.62	1.589
64.84	4.053
65.06	1.442
65.28	1.641
65.5	0.571
65.72	0.204
65.94	0.817
66.16	2.423
66.38	6.358
66.6	2.653
66.82	0.84
67.04	0.604
67.26	2.176
67.48	1.191
67.7	1.013
67.92	2.306
68.14	1.163
68.36	0.7
68.58	2.411
68.8	0.813
69.02	0.168
69.24	1.175
69.46	0.522
69.68	0.902
69.9	0.188
70.12	0.007
70.34	2.378
70.56	2.553
70.78	1.078
71	1.786
71.22	1.341
71.44	1.871
71.66	1.183
71.88	4.271
72.1	2.745
72.32	0.636
72.54	1.124
72.76	1.167
72.98	0.517
73.2	0.057
73.42	0.014
73.64	2.569
73.86	2.282
74.08	3.715
74.3	1.843
74.52	0.224
74.74	1.274
74.96	3.29
75.18	1.361
75.4	0.243
75.62	0.404
75.84	0.233
76.06	0.074
76.28	0.817
76.5	1.442
76.72	1.202
76.94	0.897
77.16	0.573
77.38	1.473
77.6	0.831
77.82	0.527
78.04	0.404
78.26	0.192
78.48	0.226
78.7	1.206
78.92	1.18
79.14	0.45
79.36	1.167
79.58	0.625
79.8	0.764
80.02	0.547
80.24	0.146
80.46	1.224
80.68	1.303
80.9	0.713
81.12	0.128
81.34	0.602
81.56	0.894
81.78	0.317
82	0.943
82.22	0.931
82.44	0.838
82.66	0.874
82.88	1.284
83.1	0.919
83.32	1.406
83.54	1.182
83.76	0.476
83.98	0.025
84.2	0.029
84.42	0.619
84.64	1.249
84.86	0.835
85.08	0.84
85.3	0.254
85.52	0.351
85.74	1.089
85.96	3.563
86.18	1.134
86.4	0.872
86.62	0.608
86.84	0.586
87.06	0.207
87.28	0.017
87.5	0.226
87.72	0.153
87.94	0.102
88.16	0.129
88.38	0.567
88.6	0.752
88.82	0.381
89.04	0.659
89.26	0.765
89.48	0.479
89.7	0.24
89.92	0.702
