Measurement: Powder, Xray Data XY Processed
Mineral: Boulangerite
Rruff sample: R050441
Ideal chemistry: Pb^2+^_5_Sb^3+^_4_S^2-^_11_
Locality: Sullivan mine, Kimberley, British Columbia, Canada
Source: University of Arizona Mineral Museum
Description: Lead-gray metallic massive
Diffraction sample description: Powder
Measured chemistry: Pb_5.00_(Sb_3.99_As_0.01_)_Î£=4_S_11.00_
Cell parameters: a: 23.487(3) b: 21.191(2) c: 4.0396(3) alpha: 90. beta: 90. gamma: 90. volume: 2010.6(3) crystal system: orthorhombic
x	intensity
5	0
5.22	7.409
5.44	3.615
5.66	0.327
5.88	8.859
6.1	2.855
6.32	5.871
6.54	5.951
6.76	4.029
6.98	6.224
7.2	2.398
7.42	4.584
7.64	1.565
7.86	4.79
8.08	6.007
8.3	3.136
8.52	2.237
8.74	2.306
8.96	1.322
9.18	3.4
9.4	0.339
9.62	3.149
9.84	2.021
10.06	1.933
10.28	0.204
10.5	4.749
10.72	1.611
10.94	2.681
11.16	8.817
11.38	6.892
11.6	3.742
11.82	0.769
12.04	0.204
12.26	0.903
12.48	1.91
12.7	1.049
12.92	1.063
13.14	3.064
13.36	5.774
13.58	1.615
13.8	1.56
14.02	1.765
14.24	1.789
14.46	0.005
14.68	7.885
14.9	4.926
15.12	2.807
15.34	3.716
15.56	3.76
15.78	4.726
16	6.871
16.22	1.969
16.44	2.835
16.66	1.891
16.88	0.785
17.1	4.818
17.32	4.829
17.54	8.787
17.76	2.845
17.98	2.897
18.2	4.057
18.42	7.997
18.64	6.966
18.86	0.027
19.08	4.835
19.3	0.288
19.52	3.738
19.74	4.736
19.96	1.832
20.18	1.667
20.4	4.481
20.62	1.232
20.84	3.195
21.06	2.205
21.28	0.748
21.5	3.473
21.72	0.149
21.94	1.639
22.16	1.31
22.38	15.098
22.6	2.03
22.82	29.686
23.04	1.385
23.26	5.869
23.48	0.66
23.7	4.041
23.92	78.971
24.14	14.008
24.36	36.951
24.58	3.332
24.8	0.71
25.02	2.663
25.24	6.842
25.46	6.903
25.68	0.473
25.9	5.685
26.12	19.583
26.34	5.946
26.56	6.058
26.78	4.121
27	34.802
27.22	8.479
27.44	5.614
27.66	7.813
27.88	27.975
28.1	5.214
28.32	0.634
28.54	1.981
28.76	1.418
28.98	0.778
29.2	0.358
29.42	9.907
29.64	31.602
29.86	20.65
30.08	10.558
30.3	17.892
30.52	2.46
30.74	3.396
30.96	0.408
31.18	1.383
31.4	0.444
31.62	17.547
31.84	76.139
32.06	18.752
32.28	34.522
32.5	0.769
32.72	7.153
32.94	1.278
33.16	6.667
33.38	36
33.6	5.217
33.82	5.366
34.04	5.637
34.26	0.606
34.48	3.222
34.7	12.516
34.92	3.748
35.14	0.409
35.36	4.799
35.58	4.957
35.8	4.799
36.02	3.767
36.24	5.749
36.46	4.552
36.68	0.815
36.9	6.337
37.12	16.169
37.34	0.128
37.56	0.988
37.78	3.477
38	26.153
38.22	6.517
38.44	11.826
38.66	7.124
38.88	16.177
39.1	13.77
39.32	0.118
39.54	5.074
39.76	1.162
39.98	0.204
40.2	12.38
40.42	3.311
40.64	11.888
40.86	3.437
41.08	4.941
41.3	3.817
41.52	7.875
41.74	1.878
41.96	4.416
42.18	16.244
42.4	1.188
42.62	3.021
42.84	0.561
43.06	10.216
43.28	17.229
43.5	4.292
43.72	4.281
43.94	2.756
44.16	5.964
44.38	1.032
44.6	10.104
44.82	12.325
45.04	15.419
45.26	3.06
45.48	6.155
45.7	2.195
45.92	3.413
46.14	6.386
46.36	2.411
46.58	4.606
46.8	8.927
47.02	3.068
47.24	13.711
47.46	11.715
47.68	5.701
47.9	1.333
48.12	3.471
48.34	0.316
48.56	0.427
48.78	18.692
49	31.113
49.22	13.96
49.44	0.965
49.66	0.856
49.88	7.018
50.1	3.768
50.32	0.516
50.54	0.849
50.76	6.582
50.98	0.398
51.2	13.213
51.42	3.413
51.64	10.285
51.86	17.887
52.08	14.369
52.3	19.665
52.52	4.875
52.74	9.28
52.96	5.768
53.18	7.816
53.4	5.634
53.62	7.363
53.84	2.767
54.06	2.826
54.28	5.036
54.5	1.145
54.72	4.496
54.94	1.651
55.16	3.611
55.38	0.67
55.6	0.714
55.82	0.108
56.04	2.612
56.26	0.836
56.48	3.126
56.7	5.411
56.92	1.244
57.14	2.629
57.36	5.968
57.58	1.413
57.8	6.688
58.02	7.697
58.24	7.514
58.46	3.738
58.68	9.624
58.9	5.602
59.12	5.516
59.34	8.558
59.56	0.354
59.78	5.047
60	8.141
60.22	10.067
60.44	9.945
60.66	8.451
60.88	3.498
61.1	3.316
61.32	2.239
61.54	3.004
61.76	5.064
61.98	6.265
62.2	0.138
62.42	0.78
62.64	6.606
62.86	0.778
63.08	3.903
63.3	14.766
63.52	7.879
63.74	4.967
63.96	4.005
64.18	0.822
64.4	0.013
64.62	0.095
64.84	7.089
65.06	5.992
65.28	0.521
65.5	0.677
65.72	0.202
65.94	0.865
66.16	7.775
66.38	12.856
66.6	4.451
66.82	8.389
67.04	6.305
67.26	2.318
67.48	6.54
67.7	4.682
67.92	10.953
68.14	1.572
68.36	3.598
68.58	0.314
68.8	0.085
69.02	3.838
69.24	1.166
69.46	1.133
69.68	0.992
69.9	0.719
70.12	3.464
70.34	3.165
70.56	1.079
70.78	4.808
71	13.619
71.22	9.444
71.44	0.803
71.66	4.332
71.88	10.2
72.1	0.704
72.32	2.373
72.54	0.46
72.76	9.405
72.98	11.397
73.2	4.521
73.42	9.533
73.64	0.145
73.86	5.16
74.08	3.723
74.3	6.106
74.52	3.159
74.74	4.252
74.96	2.245
75.18	1.54
75.4	1.627
75.62	0.585
75.84	1.496
76.06	0.691
76.28	8.551
76.5	3.067
76.72	4.856
76.94	1.898
77.16	9.93
77.38	8.094
77.6	5.93
77.82	0.073
78.04	3.056
78.26	6.138
78.48	5.231
78.7	1.308
78.92	9.49
79.14	0.284
79.36	0.176
79.58	2.906
79.8	0.884
80.02	4.901
80.24	4.956
80.46	0.507
80.68	2.681
80.9	1.706
81.12	6.48
81.34	4.505
81.56	2.14
81.78	3.974
82	9.094
82.22	0.178
82.44	5.291
82.66	0.309
82.88	8.791
83.1	1.245
83.32	14.359
83.54	1.357
83.76	2.275
83.98	0.836
84.2	1.377
84.42	1.217
84.64	10.856
84.86	6.586
85.08	8.59
85.3	1.988
85.52	0.614
85.74	7.479
85.96	4.782
86.18	1.911
86.4	6.295
86.62	1.224
86.84	3.343
87.06	0.923
87.28	0.511
87.5	2.079
87.72	1.244
87.94	5.393
88.16	1.66
88.38	3.782
88.6	3.821
88.82	3.832
89.04	4.042
89.26	4.024
89.48	5.477
89.7	8.062
89.92	8.365
