Measurement: Powder, Xray Data XY Processed
Mineral: Bournonite
Rruff sample: R050111
Ideal chemistry: Cu^1+^Pb^2+^Sb^3+^S^2-^_3_
Locality: Yao Gang Xian mine, Chenzhou, Hunan Province, China
Source: He Xin Jian
Description: Steel-gray short prismatic crystal
Diffraction sample description: Powder
Measured chemistry: PbCuSbS_3_
Cell parameters: a: 8.1493(6) b: 8.7000(7) c: 7.8106(6) alpha: 90. beta: 90. gamma: 90. volume: 553.77(5) crystal system: orthorhombic
x	intensity
5	0
5.22	0.314
5.44	6.524
5.66	1.323
5.88	0.335
6.1	4.509
6.32	8.508
6.54	9.507
6.76	18.478
6.98	6.247
7.2	5.999
7.42	11.966
7.64	12.016
7.86	6.031
8.08	12.064
8.3	0.152
8.52	1.491
8.74	7.512
8.96	1.559
9.18	4.595
9.4	5.517
9.62	6.479
9.84	4.292
10.06	2.082
10.28	7.993
10.5	4.977
10.72	7.927
10.94	8.148
11.16	6.283
11.38	3.789
11.6	2.89
11.82	5.26
12.04	2.705
12.26	3.814
12.48	5.277
12.7	5.369
12.92	8.3
13.14	6.158
13.36	2.85
13.58	2.671
13.8	11.029
14.02	9.749
14.24	5.257
14.46	5.831
14.68	4.365
14.9	15.455
15.12	1.398
15.34	36.458
15.56	1.311
15.78	76.316
16	3.389
16.22	1.438
16.44	1.845
16.66	8.357
16.88	5.487
17.1	5.95
17.32	5.626
17.54	0.519
17.76	5.335
17.98	0.286
18.2	3.305
18.42	4.469
18.64	2.106
18.86	13.001
19.08	8.87
19.3	6.726
19.52	7.197
19.74	11.105
19.96	8.156
20.18	0.045
20.4	25.901
20.62	1.65
20.84	5.116
21.06	0.891
21.28	0.446
21.5	9.403
21.72	2.2
21.94	29.018
22.16	5.778
22.38	8.596
22.6	7.881
22.82	104.875
23.04	16.834
23.26	70.942
23.48	6.205
23.7	2.39
23.92	4.345
24.14	192.68
24.36	4.003
24.58	6.544
24.8	0.773
25.02	4.653
25.24	12.024
25.46	2.275
25.68	7.375
25.9	9.432
26.12	5.282
26.34	0.772
26.56	4.148
26.78	26.093
27	8.008
27.22	10.248
27.44	38.359
27.66	6.125
27.88	2.555
28.1	2.608
28.32	6.408
28.54	3.262
28.76	0.999
28.98	1.732
29.2	4.601
29.42	10.095
29.64	2.222
29.86	7.901
30.08	97.664
30.3	8.676
30.52	0.096
30.74	31.523
30.96	12.08
31.18	7.526
31.4	4.004
31.62	6.128
31.84	73.462
32.06	1.013
32.28	24.347
32.5	11.469
32.72	254.536
32.94	51.404
33.16	5.822
33.38	208.931
33.6	20.347
33.82	5.836
34.04	2.549
34.26	6.305
34.48	14.406
34.7	46.489
34.92	20.137
35.14	9.728
35.36	2.166
35.58	4.66
35.8	10.057
36.02	4.778
36.24	6.033
36.46	3.184
36.68	8.358
36.9	5.253
37.12	4.013
37.34	8.13
37.56	7.4
37.78	21.628
38	12.469
38.22	14.453
38.44	14.447
38.66	3.316
38.88	2.911
39.1	21.084
39.32	7.041
39.54	1.388
39.76	7.547
39.98	11.298
40.2	8.989
40.42	6.912
40.64	10.835
40.86	1.562
41.08	8.316
41.3	5.282
41.52	11.108
41.74	8.041
41.96	21.62
42.18	4.164
42.4	10.354
42.62	7.789
42.84	7.108
43.06	31.321
43.28	4.289
43.5	9.466
43.72	4.402
43.94	0.658
44.16	0.095
44.38	7.932
44.6	10.721
44.82	17.311
45.04	2.687
45.26	7.206
45.48	0.829
45.7	23.456
45.92	29.249
46.14	7.995
46.36	31.948
46.58	24.769
46.8	6.655
47.02	6.926
47.24	3.863
47.46	6.806
47.68	3.884
47.9	10.88
48.12	5.933
48.34	0.787
48.56	5.437
48.78	7.494
49	7.858
49.22	44.471
49.44	20.427
49.66	2.735
49.88	6.71
50.1	4.502
50.32	6.403
50.54	7.171
50.76	0.122
50.98	13.448
51.2	1.622
51.42	5.818
51.64	72.046
51.86	56.554
52.08	16.413
52.3	3.569
52.52	6.109
52.74	35.383
52.96	2.29
53.18	24.537
53.4	15.29
53.62	2.604
53.84	0.874
54.06	8.1
54.28	8.155
54.5	4.338
54.72	4.187
54.94	12.662
55.16	23.541
55.38	41.461
55.6	9.237
55.82	2.857
56.04	8.774
56.26	7.153
56.48	34.239
56.7	0.695
56.92	7.26
57.14	0.681
57.36	4.528
57.58	10.92
57.8	8.872
58.02	13.434
58.24	13.232
58.46	4.202
58.68	2.267
58.9	16.632
59.12	8.615
59.34	19.828
59.56	10.266
59.78	2.835
60	5.044
60.22	3.696
60.44	7.992
60.66	17.199
60.88	6.319
61.1	5.166
61.32	8.296
61.54	5.513
61.76	0.292
61.98	5.263
62.2	5.327
62.42	5.229
62.64	1.654
62.86	1.581
63.08	1.376
63.3	1.603
63.52	2.339
63.74	15.054
63.96	1.074
64.18	5.741
64.4	8.456
64.62	12.196
64.84	6.558
65.06	3.585
65.28	21.681
65.5	42.165
65.72	37.091
65.94	11.086
66.16	12.065
66.38	5.022
66.6	9.91
66.82	5.735
67.04	2.56
67.26	63.315
67.48	76.226
67.7	15.605
67.92	4.245
68.14	6.181
68.36	5.715
68.58	14.723
68.8	3.815
69.02	14.997
69.24	10.266
69.46	5.45
69.68	4.272
69.9	0.593
70.12	15.844
70.34	0.012
70.56	13.212
70.78	3.23
71	9.082
71.22	3.234
71.44	13.706
71.66	0.994
71.88	3.056
72.1	2.127
72.32	7.074
72.54	3.83
72.76	3.892
72.98	5.735
73.2	10.906
73.42	22.029
73.64	11.103
73.86	1.39
74.08	11.331
74.3	6.247
74.52	12.282
74.74	1.293
74.96	9.582
75.18	7.38
75.4	8.478
75.62	11.87
75.84	9.896
76.06	2.794
76.28	0.617
76.5	8.503
76.72	6.407
76.94	4.358
77.16	7.808
77.38	21.148
77.6	17.154
77.82	10.242
78.04	23.258
78.26	0.993
78.48	2.766
78.7	8.385
78.92	8.954
79.14	7.407
79.36	16.43
79.58	6.543
79.8	10.412
80.02	0.07
80.24	10.086
80.46	2.966
80.68	9.95
80.9	12.911
81.12	6.925
81.34	0.473
81.56	7.163
81.78	5.248
82	5.135
82.22	11.018
82.44	4.781
82.66	0.048
82.88	14.879
83.1	6.834
83.32	6.761
83.54	4.73
83.76	1.866
83.98	15.808
84.2	18.518
84.42	3.469
84.64	3.153
84.86	2.978
85.08	17.762
85.3	9.058
85.52	9.542
85.74	6.461
85.96	7.271
86.18	8.868
86.4	10.899
86.62	7.055
86.84	12.832
87.06	12.626
87.28	18.137
87.5	8.953
87.72	13.68
87.94	17.201
88.16	30.212
88.38	50.448
88.6	88.654
88.82	6.27
89.04	1.625
89.26	6.134
89.48	16.413
89.7	13.827
89.92	12.827
