Measurement: Powder, Xray Data XY Processed
Mineral: Boussingaultite
Rruff sample: R061027
Ideal chemistry: (N^3-^H_4_)_2_Mg(S^6+^O_4_)_2_6H_2_O
Locality: Kladno, Bohmen, Czech Republic
Source: Michael Scott
Description: White granular aggregates
Diffraction sample description: Powder
Cell parameters: a: 9.3007(5) b: 12.577(2) c: 6.2005(9) alpha: 90 beta: 106.96(1) gamma: 90 volume: 693.7(1) crystal system: monoclinic
x	intensity
5	0
5.22	9.94807
5.44	8.02507
5.66	13.4586
5.88	8.40934
6.1	7.3397
6.32	9.36795
6.54	15.2458
6.76	12.0616
6.98	10.549
7.2	0.562065
7.42	1.71301
7.64	0.118877
7.86	6.74863
8.08	9.15352
8.3	11.7598
8.52	8.32151
8.74	3.8522
8.96	9.45326
9.18	11.1325
9.4	6.57564
9.62	3.64277
9.84	4.88791
10.06	2.89884
10.28	7.88173
10.5	27.2263
10.72	4.78933
10.94	9.25534
11.16	13.4579
11.38	1.42724
11.6	22.514
11.82	17.4924
12.04	9.66108
12.26	8.68876
12.48	23.5204
12.7	14.1309
12.92	18.5053
13.14	13.677
13.36	5.91017
13.58	1.029
13.8	17.9969
14.02	21.3783
14.24	15.9075
14.46	8.95679
14.68	17.0764
14.9	29.0542
15.12	23.1634
15.34	15.3118
15.56	7.23991
15.78	9.39943
16	4.61127
16.22	25.114
16.44	39.4419
16.66	19.8125
16.88	15.0766
17.1	3.31322
17.32	96.9105
17.54	2.85249
17.76	5.04114
17.98	15.9991
18.2	16.3356
18.42	12.5939
18.64	18.5875
18.86	15.121
19.08	11.7514
19.3	18.7592
19.52	14.607
19.74	2.72587
19.96	74.6302
20.18	8.798
20.4	7.15491
20.62	23.0746
20.84	81.3089
21.06	4.99439
21.28	70.8762
21.5	117.922
21.72	8.05321
21.94	7.53727
22.16	2.68036
22.38	29.6318
22.6	9.48716
22.82	2.63377
23.04	10.454
23.26	7.33856
23.48	250.755
23.7	27.0894
23.92	5.78289
24.14	1.04645
24.36	6.55432
24.58	3.72474
24.8	40.725
25.02	15.4944
25.24	13.1231
25.46	8.14832
25.68	18.4583
25.9	16.9715
26.12	42.2343
26.34	39.9676
26.56	5.92319
26.78	18.5305
27	2.54504
27.22	14.7821
27.44	13.8397
27.66	10.5699
27.88	8.08242
28.1	4.97865
28.32	37.016
28.54	13.3004
28.76	6.09894
28.98	13.6831
29.2	31.8122
29.42	24.345
29.64	55.3772
29.86	9.05748
30.08	19.0397
30.3	42.4335
30.52	7.57885
30.74	11.6443
30.96	73.7842
31.18	9.77712
31.4	8.01453
31.62	12.8791
31.84	44.8766
32.06	19.9393
32.28	53.8512
32.5	15.1973
32.72	3.93545
32.94	10.0615
33.16	5.64826
33.38	18.4282
33.6	13.5189
33.82	7.05194
34.04	17.7124
34.26	12.1054
34.48	9.61825
34.7	10.2177
34.92	11.7502
35.14	25.5361
35.36	7.25011
35.58	11.625
35.8	16.6456
36.02	10.2055
36.24	23.7422
36.46	10.5131
36.68	39.3683
36.9	11.2836
37.12	3.00739
37.34	11.6239
37.56	6.93604
37.78	17.1988
38	8.03607
38.22	9.4558
38.44	1.1695
38.66	17.0407
38.88	16.0674
39.1	2.28103
39.32	11.5828
39.54	6.04436
39.76	4.55383
39.98	0.63983
40.2	19.069
40.42	1.02228
40.64	12.5229
40.86	8.28026
41.08	1.43855
41.3	11.195
41.52	26.7877
41.74	10.159
41.96	19.3622
42.18	4.56759
42.4	10.8674
42.62	0.22142
42.84	0.737972
43.06	7.25308
43.28	10.8121
43.5	12.1017
43.72	11.8634
43.94	10.6381
44.16	17.732
44.38	13.1616
44.6	3.61412
44.82	23.8872
45.04	13.2193
45.26	17.7241
45.48	7.1008
45.7	5.2111
45.92	11.062
46.14	8.06532
46.36	13.0414
46.58	10.4433
46.8	11.5771
47.02	2.92093
47.24	8.32929
47.46	10.792
47.68	7.03703
47.9	7.39268
48.12	18.9043
48.34	11.3246
48.56	6.36037
48.78	5.60203
49	6.88007
49.22	13.1678
49.44	3.19544
49.66	16.1943
49.88	0.491348
50.1	7.31157
50.32	16.672
50.54	4.84333
50.76	10.08
50.98	17.7669
51.2	8.55225
51.42	6.85079
51.64	12.076
51.86	17.1623
52.08	0.551483
52.3	18.683
52.52	19.3235
52.74	9.14099
52.96	7.19717
53.18	8.41379
53.4	3.2687
53.62	3.82704
53.84	12.8998
54.06	17.4468
54.28	7.84143
54.5	6.14685
54.72	15.3333
54.94	18.3097
55.16	13.2301
55.38	9.42569
55.6	11.4685
55.82	13.7715
56.04	20.9709
56.26	7.69497
56.48	10.807
56.7	12.8515
56.92	11.6522
57.14	7.90209
57.36	0.093939
57.58	9.07316
57.8	16.0084
58.02	4.91165
58.24	2.3264
58.46	2.57037
58.68	1.30772
58.9	8.29479
59.12	5.24731
59.34	13.2279
59.56	6.09291
59.78	11.0108
60	6.5606
60.22	2.25866
60.44	2.98548
60.66	12.252
60.88	11.6059
61.1	10.5847
61.32	9.19345
61.54	0.676201
61.76	7.68917
61.98	13.8876
62.2	8.12651
62.42	10.9785
62.64	9.68651
62.86	7.88809
63.08	15.8659
63.3	21.769
63.52	5.58841
63.74	4.77935
63.96	8.93452
64.18	4.8271
64.4	3.81593
64.62	9.72261
64.84	10.0042
65.06	0.552523
65.28	11.7186
65.5	11.8644
65.72	9.1484
65.94	5.27025
66.16	11.3707
66.38	7.6307
66.6	14.8182
66.82	11.9166
67.04	5.07009
67.26	9.83878
67.48	7.69866
67.7	4.6872
67.92	6.74922
68.14	2.78396
68.36	1.18197
68.58	11.0507
68.8	9.61405
69.02	1.61509
69.24	5.61971
69.46	1.0993
69.68	1.90868
69.9	8.38566
70.12	15.5546
70.34	6.53586
70.56	2.32538
70.78	4.2166
71	7.20705
71.22	6.11293
71.44	5.01528
71.66	15.86
71.88	9.6548
72.1	11.7915
72.32	0.413209
72.54	11.5373
72.76	4.61563
72.98	0.348962
73.2	6.95972
73.42	4.96925
73.64	5.05947
73.86	4.23566
74.08	9.35195
74.3	6.37436
74.52	17.3041
74.74	4.37869
74.96	5.56313
75.18	19.64
75.4	8.69533
75.62	0.39622
75.84	13.5746
76.06	3.23469
76.28	6.89986
76.5	7.73935
76.72	1.03305
76.94	7.87421
77.16	7.7632
77.38	2.67728
77.6	4.25957
77.82	18.5939
78.04	7.64476
78.26	19.5883
78.48	5.65639
78.7	2.67658
78.92	6.7106
79.14	12.4828
79.36	5.88802
79.58	4.82428
79.8	9.70425
80.02	7.02694
80.24	5.94476
80.46	11.8004
80.68	5.96933
80.9	2.90474
81.12	0.747621
81.34	3.03025
81.56	11.1057
81.78	10.7908
82	12.7986
82.22	12.0187
82.44	1.0251
82.66	5.97078
82.88	2.18962
83.1	15.9579
83.32	5.94689
83.54	2.18354
83.76	12.1689
83.98	8.18488
84.2	5.98083
84.42	9.07216
84.64	2.89227
84.86	7.91382
85.08	11.8161
85.3	8.57575
85.52	4.62584
85.74	0.153982
85.96	0.711436
86.18	11.3013
86.4	8.15065
86.62	9.35967
86.84	2.57305
87.06	4.53606
87.28	3.52451
87.5	8.7278
87.72	3.67147
87.94	6.47542
88.16	0.378201
88.38	7.15816
88.6	6.58156
88.82	5.8643
89.04	11.1167
89.26	12.8203
89.48	7.91514
89.7	7.74062
89.92	12.269
