Measurement: Powder, Xray Data XY Processed
Mineral: Brannerite
Rruff sample: R080091
Ideal chemistry: U^4+^Ti^4+^_2_O_6_
Locality: Crocker's Well, South Australia, Australia
Source: Michael Scott
Description: Light brown fragment from metamict sample R060613, after heating at T = 1000 C for 18 hours
Diffraction sample description: Powder
Cell parameters: a: 9.8272(4) b: 3.7371(2) c: 6.8938(4) alpha: 90 beta: 118.573(4) gamma: 90 volume: 222.34(2) crystal system: monoclinic
x	intensity
5	0
5.22	13.2039
5.44	15.1326
5.66	10.7788
5.88	16.9073
6.1	11.0115
6.32	5.19716
6.54	10.1078
6.76	10.3053
6.98	10.4504
7.2	8.63956
7.42	0.181026
7.64	6.12746
7.86	4.51962
8.08	10.7852
8.3	2.02845
8.52	13.0969
8.74	2.20264
8.96	8.4155
9.18	3.61087
9.4	2.49613
9.62	5.37001
9.84	5.30147
10.06	17.2695
10.28	4.79563
10.5	2.39444
10.72	3.16646
10.94	5.08404
11.16	8.82314
11.38	7.72202
11.6	6.43785
11.82	1.8771
12.04	11.2267
12.26	4.46257
12.48	11.3959
12.7	4.47639
12.92	2.74006
13.14	1.09512
13.36	0.940414
13.58	7.93841
13.8	2.92291
14.02	0.114899
14.24	2.33637
14.46	14.6174
14.68	62.2271
14.9	41.2677
15.12	0.516418
15.34	0.733776
15.56	2.9271
15.78	8.08922
16	1.10384
16.22	4.61048
16.44	8.505
16.66	5.10042
16.88	16.9233
17.1	2.82707
17.32	5.51011
17.54	11.1521
17.76	3.01649
17.98	0.058539
18.2	5.85808
18.42	7.06494
18.64	192.246
18.86	27.6443
19.08	8.94422
19.3	10.0224
19.52	11.2935
19.74	10.5995
19.96	0.189818
20.18	9.38827
20.4	15.5617
20.62	90.7903
20.84	11.7751
21.06	13.4977
21.28	6.19789
21.5	9.03428
21.72	2.96644
21.94	10.1779
22.16	5.22765
22.38	11.8364
22.6	6.91084
22.82	10.0413
23.04	11.0142
23.26	2.40081
23.48	1.13807
23.7	2.86016
23.92	9.53941
24.14	0.838857
24.36	1.28354
24.58	8.75177
24.8	2.92466
25.02	31.9689
25.24	8.80744
25.46	8.57729
25.68	4.13174
25.9	112.717
26.12	31.098
26.34	30.5697
26.56	63.2715
26.78	73.0209
27	9.08662
27.22	4.71157
27.44	73.9079
27.66	18.8992
27.88	77.8203
28.1	14.8482
28.32	12.783
28.54	1.84193
28.76	0.294123
28.98	3.95538
29.2	10.1029
29.42	64.1578
29.64	15.6433
29.86	14.345
30.08	31.2898
30.3	3.847
30.52	25.0124
30.74	81.1273
30.96	14.4915
31.18	0.304871
31.4	15.3088
31.62	7.50138
31.84	8.60517
32.06	10.7425
32.28	57.0605
32.5	23.0797
32.72	18.7514
32.94	24.9972
33.16	0.691858
33.38	10.9631
33.6	11.9385
33.82	9.63989
34.04	3.1683
34.26	12.2412
34.48	1.18641
34.7	7.04661
34.92	3.43417
35.14	6.96825
35.36	14.7437
35.58	78.0832
35.8	6.75958
36.02	24.9998
36.24	13.1736
36.46	158.24
36.68	7.83663
36.9	80.5192
37.12	6.34367
37.34	4.37758
37.56	1.94089
37.78	1.99521
38	3.50631
38.22	0.870992
38.44	6.13188
38.66	10.6725
38.88	6.66495
39.1	7.51659
39.32	27.3757
39.54	88.0156
39.76	9.79908
39.98	1.0755
40.2	7.73654
40.42	15.4581
40.64	10.5344
40.86	9.63704
41.08	12.0472
41.3	12.1871
41.52	5.97162
41.74	10.894
41.96	34.9019
42.18	1.77734
42.4	3.12821
42.62	9.28941
42.84	2.42991
43.06	1.00572
43.28	5.52353
43.5	15.7534
43.72	5.99688
43.94	3.59266
44.16	21.6882
44.38	64.3609
44.6	28.1958
44.82	28.2505
45.04	18.2854
45.26	3.81916
45.48	9.557
45.7	23.0865
45.92	8.49575
46.14	10.9819
46.36	5.96499
46.58	5.43563
46.8	4.04072
47.02	5.67821
47.24	6.28975
47.46	28.2518
47.68	67.2372
47.9	16.754
48.12	17.6175
48.34	25.5135
48.56	23.447
48.78	31.107
49	15.3775
49.22	11.2861
49.44	11.2988
49.66	18.2349
49.88	4.0449
50.1	7.72804
50.32	4.15031
50.54	16.392
50.76	10.7993
50.98	9.81735
51.2	10.9306
51.42	4.8716
51.64	5.99589
51.86	4.31253
52.08	4.673
52.3	2.94315
52.52	10.2573
52.74	25.5717
52.96	11.141
53.18	4.50874
53.4	20.9396
53.62	52.8847
53.84	31.2798
54.06	15.8565
54.28	33.6661
54.5	20.4791
54.72	4.18308
54.94	16.6509
55.16	6.34151
55.38	4.71884
55.6	22.0908
55.82	11.5331
56.04	11.2884
56.26	25.8642
56.48	59.1837
56.7	35.1724
56.92	9.59112
57.14	41.7496
57.36	21.5198
57.58	2.51826
57.8	4.79763
58.02	14.2677
58.24	6.83195
58.46	9.77677
58.68	31.7958
58.9	50.7906
59.12	42.874
59.34	11.5932
59.56	9.11203
59.78	6.45353
60	9.75718
60.22	6.8845
60.44	14.6439
60.66	7.19806
60.88	7.3475
61.1	3.015
61.32	1.79786
61.54	5.45316
61.76	9.67623
61.98	10.2247
62.2	8.0909
62.42	5.3536
62.64	19.033
62.86	10.763
63.08	9.59463
63.3	3.63539
63.52	3.70711
63.74	9.85342
63.96	15.3905
64.18	14.3912
64.4	15.5784
64.62	9.62789
64.84	10.9436
65.06	13.289
65.28	6.5319
65.5	12.6501
65.72	6.85044
65.94	10.1547
66.16	16.3571
66.38	1.82971
66.6	9.49004
66.82	9.20591
67.04	1.31386
67.26	11.4048
67.48	0.138329
67.7	8.9679
67.92	23.8114
68.14	34.8697
68.36	12.7408
68.58	13.606
68.8	1.75236
69.02	14.9806
69.24	9.46972
69.46	5.98927
69.68	7.1423
69.9	9.99889
70.12	12.4057
70.34	1.00138
70.56	3.16459
70.78	1.18646
71	6.10062
71.22	8.8803
71.44	6.53514
71.66	11.3731
71.88	5.63696
72.1	16.6725
72.32	5.73394
72.54	7.27607
72.76	0.881868
72.98	6.54227
73.2	8.31828
73.42	11.2624
73.64	15.1681
73.86	2.31044
74.08	8.21804
74.3	14.2233
74.52	2.27347
74.74	4.35927
74.96	3.67589
75.18	2.80107
75.4	32.7218
75.62	17.9039
75.84	0.210271
76.06	4.7702
76.28	3.24778
76.5	10.1894
76.72	5.41014
76.94	5.69689
77.16	14.6688
77.38	11.758
77.6	10.1538
77.82	1.19109
78.04	3.19424
78.26	12.4812
78.48	7.74024
78.7	4.66805
78.92	9.68411
79.14	2.31046
79.36	9.1789
79.58	4.22822
79.8	1.02968
80.02	5.56988
80.24	4.28126
80.46	11.4535
80.68	11.611
80.9	9.04963
81.12	14.6148
81.34	1.9181
81.56	2.21021
81.78	6.48322
82	11.6331
82.22	8.77009
82.44	13.7477
82.66	6.65229
82.88	8.5412
83.1	13.2106
83.32	0.674896
83.54	6.30919
83.76	3.29174
83.98	1.09753
84.2	15.0457
84.42	11.0595
84.64	6.06549
84.86	18.7816
85.08	18.8366
85.3	18.0625
85.52	8.26961
85.74	5.44523
85.96	4.64396
86.18	6.77409
86.4	8.01754
86.62	5.07202
86.84	7.18079
87.06	7.11256
87.28	4.21288
87.5	0.79817
87.72	11.2318
87.94	9.56998
88.16	2.6462
88.38	10.9506
88.6	8.99679
88.82	9.64605
89.04	1.12987
89.26	0.972746
89.48	6.0342
89.7	11.3893
89.92	1.3662
