Measurement: Powder, Xray Data XY Processed
Mineral: Braunite
Rruff sample: R050390
Ideal chemistry: Mn^2+^Mn^3+^_6_SiO_12_
Locality: Oehrenstock, Thuringia, Germany
Source: University of Arizona Mineral Museum
Description: Mass of black octahedra
Diffraction sample description: Powder
Measured chemistry: (Mn^2+^_0.83_Ca_0.17_)_Î£=1_Mn^3+^_6.00_Si_1.00_O_12_
Cell parameters: a: 9.4215(7) b: 9.4215(7) c: 18.692(2) alpha: 90. beta: 90. gamma: 90. volume: 1659.2(2) crystal system: tetragonal
x	intensity
5	0
5.22	25.3179
5.44	3.31277
5.66	18.8224
5.88	8.85662
6.1	16.1484
6.32	20.2625
6.54	18.838
6.76	15.7185
6.98	19.0151
7.2	25.0424
7.42	20.4543
7.64	24.6378
7.86	26.8207
8.08	25.1992
8.3	20.6585
8.52	1.36063
8.74	5.1205
8.96	10.8968
9.18	12.8248
9.4	27.7883
9.62	6.21647
9.84	17.2247
10.06	7.91709
10.28	23.9281
10.5	4.17684
10.72	19.0385
10.94	5.44216
11.16	17.5254
11.38	2.25885
11.6	17.8043
11.82	16.5608
12.04	15.0845
12.26	17.5452
12.48	11.7904
12.7	19.9018
12.92	13.805
13.14	20.5771
13.36	12.9085
13.58	25.0252
13.8	8.26972
14.02	14.8351
14.24	1.13462
14.46	0.645206
14.68	2.33443
14.9	7.26014
15.12	6.95552
15.34	15.9328
15.56	12.5523
15.78	4.91418
16	10.626
16.22	10.7708
16.44	4.2971
16.66	11.8925
16.88	2.2307
17.1	19.2013
17.32	9.33659
17.54	26.7381
17.76	1.76425
17.98	16.8374
18.2	15.601
18.42	3.77464
18.64	4.78465
18.86	29.484
19.08	16.3499
19.3	9.96326
19.52	15.9027
19.74	13.8726
19.96	1.69001
20.18	17.1372
20.4	19.2314
20.62	6.72271
20.84	14.4787
21.06	22.5936
21.28	19.1102
21.5	14.7975
21.72	23.2694
21.94	25.025
22.16	39.1804
22.38	9.81774
22.6	4.89168
22.82	14.286
23.04	16.0559
23.26	14.5892
23.48	17.4855
23.7	13.4288
23.92	3.6321
24.14	7.06657
24.36	22.394
24.58	4.00647
24.8	13.262
25.02	18.1924
25.24	10.0613
25.46	35.0713
25.68	14.1549
25.9	16.0141
26.12	14.0969
26.34	17.2879
26.56	19.1148
26.78	17.181
27	9.10643
27.22	5.53853
27.44	10.2844
27.66	2.76724
27.88	10.8985
28.1	9.82956
28.32	6.66502
28.54	6.23601
28.76	10.4183
28.98	14.4212
29.2	17.296
29.42	7.68793
29.64	23.0023
29.86	25.7329
30.08	11.3787
30.3	24.0058
30.52	28.8358
30.74	27.0516
30.96	6.48916
31.18	10.8721
31.4	11.8529
31.62	10.3298
31.84	6.58844
32.06	31.6835
32.28	0.375294
32.5	20.5143
32.72	31.4132
32.94	133.297
33.16	168.774
33.38	14.5218
33.6	37.7942
33.82	9.4001
34.04	7.73945
34.26	7.12819
34.48	11.8588
34.7	3.19785
34.92	11.3834
35.14	18.9339
35.36	6.25191
35.58	5.65099
35.8	18.1038
36.02	1.40216
36.24	9.07121
36.46	13.3019
36.68	36.8515
36.9	7.97955
37.12	9.12913
37.34	13.4896
37.56	14.3503
37.78	5.51827
38	9.41334
38.22	46.1596
38.44	27.5255
38.66	27.6451
38.88	10.9327
39.1	17.5222
39.32	1.18607
39.54	15.6519
39.76	13.954
39.98	12.6576
40.2	13.2728
40.42	1.15508
40.64	13.3553
40.86	10.5765
41.08	12.6546
41.3	16.2975
41.52	3.22856
41.74	7.41072
41.96	26.1405
42.18	48.8299
42.4	11.9566
42.62	6.27727
42.84	3.57025
43.06	4.17407
43.28	23.8233
43.5	3.78602
43.72	9.27669
43.94	8.37122
44.16	23.2471
44.38	4.03583
44.6	1.80594
44.82	12.4176
45.04	14.3563
45.26	16.1913
45.48	12.8701
45.7	27.9478
45.92	14.1904
46.14	13.0621
46.36	18.0636
46.58	11.3699
46.8	3.11546
47.02	16.4242
47.24	17.7659
47.46	7.76173
47.68	28.0374
47.9	2.78764
48.12	1.37065
48.34	5.66954
48.56	32.4942
48.78	18.5567
49	3.2302
49.22	38.5896
49.44	19.7647
49.66	0.857834
49.88	18.3429
50.1	12.0797
50.32	5.76457
50.54	11.4109
50.76	6.26698
50.98	24.6429
51.2	8.0839
51.42	11.2172
51.64	23.1001
51.86	13.6513
52.08	3.66084
52.3	4.13121
52.52	30.0736
52.74	38.9611
52.96	18.7665
53.18	9.82807
53.4	12.3668
53.62	11.5082
53.84	15.2085
54.06	17.883
54.28	2.59288
54.5	11.2714
54.72	8.96066
54.94	19.3565
55.16	35.7778
55.38	71.1869
55.6	29.0206
55.82	22.4104
56.04	7.3841
56.26	17.8411
56.48	14.1272
56.7	0.435684
56.92	28.7977
57.14	19.1484
57.36	21.7504
57.58	27.5391
57.8	0.423744
58.02	17.6055
58.24	14.1722
58.46	0.043297
58.68	13.167
58.9	17.9451
59.12	13.0517
59.34	3.99604
59.56	20.2023
59.78	11.5202
60	8.36457
60.22	15.3425
60.44	5.30256
60.66	6.77699
60.88	5.02259
61.1	20.295
61.32	11.9227
61.54	29.6546
61.76	24.7461
61.98	2.95589
62.2	4.45456
62.42	3.54027
62.64	5.77304
62.86	16.0547
63.08	30.3085
63.3	25.5171
63.52	32.452
63.74	14.8125
63.96	20.2298
64.18	16.7019
64.4	18.8722
64.62	9.21733
64.84	24.3425
65.06	29.0529
65.28	10.5588
65.5	6.14941
65.72	21.7893
65.94	41.1821
66.16	42.0601
66.38	29.1084
66.6	6.14046
66.82	1.45414
67.04	11.9142
67.26	11.4891
67.48	24.6705
67.7	2.43867
67.92	6.28875
68.14	4.19634
68.36	18.6702
68.58	23.0042
68.8	10.5536
69.02	27.0889
69.24	39.7973
69.46	20.9996
69.68	16.6831
69.9	20.2484
70.12	17.2453
70.34	9.35726
70.56	21.7502
70.78	4.29011
71	17.0705
71.22	13.1561
71.44	19.6078
71.66	14.193
71.88	6.6693
72.1	2.6912
72.32	5.08569
72.54	14.0987
72.76	1.64158
72.98	18.4338
73.2	8.93044
73.42	16.4424
73.64	6.16263
73.86	4.10142
74.08	12.0552
74.3	13.5029
74.52	2.7274
74.74	12.4292
74.96	16.5157
75.18	13.8567
75.4	0.627216
75.62	16.8344
75.84	21.3105
76.06	11.1477
76.28	7.96655
76.5	18.8537
76.72	20.5753
76.94	6.30352
77.16	15.9908
77.38	21.9368
77.6	2.3771
77.82	22.5962
78.04	12.2714
78.26	5.70481
78.48	17.2378
78.7	11.414
78.92	1.72286
79.14	2.14074
79.36	11.0095
79.58	2.32502
79.8	38.4553
80.02	0.299866
80.24	12.1873
80.46	24.0207
80.68	15.3746
80.9	19.7449
81.12	5.00982
81.34	10.4814
81.56	1.61409
81.78	29.0336
82	9.71313
82.22	20.3326
82.44	4.62798
82.66	14.9082
82.88	14.0853
83.1	8.98372
83.32	2.36743
83.54	22.0265
83.76	5.35261
83.98	18.2085
84.2	22.9378
84.42	1.06705
84.64	20.5361
84.86	5.92757
85.08	23.536
85.3	10.701
85.52	16.1896
85.74	12.2109
85.96	16.8884
86.18	25.29
86.4	13.1686
86.62	18.007
86.84	11.1345
87.06	18.1071
87.28	17.35
87.5	15.1616
87.72	11.1894
87.94	1.10316
88.16	14.0386
88.38	8.00806
88.6	27.0017
88.82	12.7005
89.04	20.9687
89.26	11.6665
89.48	20.4514
89.7	22.7376
89.92	5.09844
