Measurement: Powder, Xray Data XY Processed
Mineral: Braunite
Rruff sample: R050385
Ideal chemistry: Mn^2+^Mn^3+^_6_SiO_12_
Locality: Jhabua District, Madhya Pradesh, India
Source: University of Arizona Mineral Museum
Description: Black prismatic crystals
Diffraction sample description: Powder
Measured chemistry: (Fe^2+^_0.61_Mn^2+^_0.39_)_Σ=1_(Mn^3+^_5.94_Al_0.06_)_Σ=6_Si_1.00_O_12_
Cell parameters: a: 9.4224(3) b: 9.4224(3) c: 18.7082(8) alpha: 90. beta: 90. gamma: 90. volume: 1660.9(1) crystal system: tetragonal
x	intensity
5	0
5.22	9.00551
5.44	20.3069
5.66	2.90283
5.88	18.1801
6.1	19.3354
6.32	0.438095
6.54	1.98912
6.76	21.5886
6.98	15.6659
7.2	42.0057
7.42	4.06999
7.64	0.26619
7.86	29.3285
8.08	7.44849
8.3	9.45453
8.52	9.68433
8.74	19.1671
8.96	10.3077
9.18	18.6423
9.4	19.0369
9.62	10.2736
9.84	1.83579
10.06	8.85466
10.28	11.4612
10.5	21.0873
10.72	36.4737
10.94	26.7029
11.16	11.6544
11.38	17.6549
11.6	20.0298
11.82	14.6799
12.04	23.8649
12.26	18.6246
12.48	16.1275
12.7	13.6179
12.92	19.6546
13.14	10.5255
13.36	21.9786
13.58	4.58383
13.8	13.0477
14.02	6.01208
14.24	0.10556
14.46	23.4231
14.68	24.1168
14.9	2.64915
15.12	21.4503
15.34	4.72725
15.56	19.8529
15.78	19.1517
16	25.529
16.22	31.3247
16.44	5.42766
16.66	12.3689
16.88	4.88891
17.1	9.08958
17.32	8.41569
17.54	10.5548
17.76	20.0339
17.98	1.28095
18.2	2.8548
18.42	8.81551
18.64	20.618
18.86	22.7519
19.08	2.17776
19.3	19.5998
19.52	20.1657
19.74	34.2099
19.96	17.8807
20.18	0.687141
20.4	23.3302
20.62	29.5701
20.84	18.5525
21.06	14.1088
21.28	19.6465
21.5	14.199
21.72	23.8424
21.94	24.7811
22.16	9.42504
22.38	19.5363
22.6	12.8731
22.82	20.8531
23.04	37.6998
23.26	27.9551
23.48	4.34652
23.7	0.011429
23.92	0.046165
24.14	2.13763
24.36	18.9904
24.58	14.944
24.8	7.27638
25.02	19.0697
25.24	25.8559
25.46	6.05837
25.68	23.3445
25.9	23.5136
26.12	20.2628
26.34	15.0306
26.56	31.5209
26.78	9.23437
27	3.157
27.22	12.3972
27.44	17.8465
27.66	14.5218
27.88	6.27531
28.1	0.855202
28.32	8.60474
28.54	5.45417
28.76	8.73157
28.98	15.8058
29.2	14.4374
29.42	7.88681
29.64	4.08432
29.86	8.92588
30.08	1.41148
30.3	11.8788
30.52	13.045
30.74	26.8844
30.96	22.8766
31.18	44.6345
31.4	5.65449
31.62	9.18455
31.84	20.7009
32.06	10.6735
32.28	8.19914
32.5	21.0096
32.72	23.1801
32.94	99.5168
33.16	164.817
33.38	9.58811
33.6	6.67006
33.82	14.4901
34.04	23.8077
34.26	13.9575
34.48	24.8721
34.7	22.8491
34.92	5.57423
35.14	14.5808
35.36	11.17
35.58	19.1187
35.8	34.3575
36.02	28.2888
36.24	30.6261
36.46	14.3509
36.68	17.9132
36.9	28.6444
37.12	19.2827
37.34	0.956871
37.56	9.01059
37.78	10.4723
38	6.15888
38.22	84.294
38.44	22.3165
38.66	11.0431
38.88	14.6234
39.1	6.57448
39.32	19.4322
39.54	13.5584
39.76	6.72937
39.98	0.563232
40.2	6.56741
40.42	25.8617
40.64	25.7579
40.86	6.49915
41.08	0.031219
41.3	3.38171
41.52	3.80365
41.74	14.7122
41.96	32.5439
42.18	79.1654
42.4	33.5097
42.62	10.0926
42.84	16.5971
43.06	12.4174
43.28	6.85059
43.5	18.9446
43.72	26.0229
43.94	32.9406
44.16	10.5964
44.38	2.07927
44.6	4.20935
44.82	4.2306
45.04	12.5091
45.26	12.6328
45.48	16.7899
45.7	30.5268
45.92	6.61031
46.14	19.8327
46.36	7.37103
46.58	14.0064
46.8	9.31268
47.02	7.30637
47.24	15.4686
47.46	4.90592
47.68	21.7792
47.9	21.0071
48.12	14.1542
48.34	16.9373
48.56	45.0752
48.78	23.1112
49	7.41261
49.22	18.9412
49.44	18.9753
49.66	16.2413
49.88	26.5887
50.1	16.9666
50.32	20.2952
50.54	11.566
50.76	12.4429
50.98	29.4869
51.2	13.5382
51.42	30.6489
51.64	6.98423
51.86	9.70326
52.08	13.7053
52.3	23.9431
52.52	12.1468
52.74	25.2885
52.96	21.3736
53.18	30.3778
53.4	0.369362
53.62	18.8785
53.84	20.1826
54.06	1.12176
54.28	2.015
54.5	7.62535
54.72	40.8035
54.94	18.3863
55.16	49.5175
55.38	130.173
55.6	29.2153
55.82	23.1774
56.04	16.9215
56.26	1.449
56.48	19.9777
56.7	7.02486
56.92	3.28549
57.14	15.2852
57.36	17.6151
57.58	31.3073
57.8	27.1635
58.02	31.5725
58.24	31.6792
58.46	15.2604
58.68	14.0614
58.9	3.68935
59.12	7.92416
59.34	24.972
59.56	33.1866
59.78	1.09431
60	8.57472
60.22	37.7411
60.44	11.7206
60.66	12.7355
60.88	6.91243
61.1	27.1672
61.32	20.751
61.54	6.59583
61.76	26.6059
61.98	12.513
62.2	14.341
62.42	7.60246
62.64	22.2641
62.86	2.04188
63.08	0.704643
63.3	25.3455
63.52	3.11877
63.74	4.52952
63.96	19.3033
64.18	25.4157
64.4	6.25508
64.62	0.887802
64.84	0.890297
65.06	5.83482
65.28	18.6995
65.5	19.3888
65.72	58.2724
65.94	49.3177
66.16	52.512
66.38	46.6407
66.6	24.6783
66.82	7.85015
67.04	18.3273
67.26	21.8432
67.48	2.67554
67.7	17.9298
67.92	8.2741
68.14	4.1481
68.36	12.4603
68.58	16.9704
68.8	25.8355
69.02	12.6011
69.24	28.49
69.46	24.2986
69.68	29.8126
69.9	5.59779
70.12	19.5229
70.34	25.4531
70.56	45.6665
70.78	16.5626
71	13.6998
71.22	20.1239
71.44	23.0102
71.66	14.3783
71.88	6.69697
72.1	9.53073
72.32	1.47127
72.54	4.87207
72.76	24.4265
72.98	32.5303
73.2	14.7098
73.42	16.7019
73.64	3.33472
73.86	21.5871
74.08	32.929
74.3	38.3266
74.52	6.5876
74.74	19.9053
74.96	19.2187
75.18	0.313972
75.4	9.24499
75.62	13.4923
75.84	6.56402
76.06	9.22922
76.28	26.6442
76.5	20.1187
76.72	2.62102
76.94	2.41487
77.16	5.07843
77.38	3.47726
77.6	16.4391
77.82	7.41182
78.04	12.35
78.26	13.226
78.48	4.77185
78.7	14.203
78.92	27.8391
79.14	9.89772
79.36	17.2467
79.58	25.3205
79.8	8.64291
80.02	20.8858
80.24	14.8472
80.46	9.33141
80.68	13.1448
80.9	18.867
81.12	24.2676
81.34	8.89828
81.56	9.34057
81.78	4.01512
82	0.741791
82.22	16.2249
82.44	4.57252
82.66	25.5805
82.88	26.2493
83.1	16.4827
83.32	22.9818
83.54	6.31482
83.76	9.88251
83.98	8.47286
84.2	16.1454
84.42	17.3211
84.64	21.9218
84.86	11.1796
85.08	29.4152
85.3	21.3545
85.52	25.8417
85.74	19.417
85.96	1.43572
86.18	35.699
86.4	10.4154
86.62	24.9358
86.84	19.2257
87.06	15.0775
87.28	22.4937
87.5	20.9959
87.72	17.7761
87.94	15.2313
88.16	10.7307
88.38	15.9036
88.6	24.5609
88.82	31.1054
89.04	7.17995
89.26	25.5008
89.48	9.22218
89.7	7.7164
89.92	18.2765
