Measurement: Powder, Xray Data XY Processed
Mineral: Brazilianite
Rruff sample: R050126
Ideal chemistry: NaAl_3_(PO_4_)_2_(OH)_4_
Locality: Linopolis, Minas Gerais, Brazil
Source: Carlos and Paulo Vasconcelos
Description: Pair of greenish yellow elongated crystals
Diffraction sample description: Powder
Measured chemistry: Na_1.00_Al_3.00_(P_1.00_O_4_)_2_((OH)_3.80_F_0.20_)_Î£=4_
Cell parameters: a: 11.234(1) b: 10.1495(4) c: 7.1098(7) alpha: 90. beta: 97.303(8) gamma: 90. volume: 804.10(5) crystal system: monoclinic
x	intensity
5	0
5.22	16.4746
5.44	5.0866
5.66	7.85581
5.88	8.04965
6.1	11.3058
6.32	14.1318
6.54	21.0071
6.76	3.3794
6.98	12.6951
7.2	9.3992
7.42	8.63832
7.64	10.3656
7.86	11.9112
8.08	8.62578
8.3	4.36106
8.52	0.919039
8.74	2.10456
8.96	6.07014
9.18	3.63093
9.4	9.97033
9.62	9.05499
9.84	14.1969
10.06	7.34557
10.28	3.46018
10.5	0.419003
10.72	5.29361
10.94	7.41867
11.16	13.3216
11.38	2.52167
11.6	8.14269
11.82	4.97955
12.04	4.90222
12.26	5.77973
12.48	1.29819
12.7	0.5201
12.92	14.3056
13.14	5.37756
13.36	5.4408
13.58	5.43048
13.8	6.64211
14.02	8.64489
14.24	5.479
14.46	0.4356
14.68	6.07472
14.9	5.75303
15.12	8.5568
15.34	403.013
15.56	10.8327
15.78	35.9514
16	9.74524
16.22	4.16119
16.44	32.5267
16.66	6.11768
16.88	0.412515
17.1	14.9494
17.32	32.9312
17.54	2063.01
17.76	24.3746
17.98	27.0072
18.2	5.5091
18.42	8.03467
18.64	5.2453
18.86	8.14415
19.08	7.77937
19.3	49.9291
19.52	5.08927
19.74	5.64743
19.96	1.4001
20.18	1.46697
20.4	7.11744
20.62	6.59584
20.84	6.98885
21.06	2.62032
21.28	7.49446
21.5	14.8827
21.72	3.91133
21.94	2.54145
22.16	5.42252
22.38	8.39126
22.6	4.08936
22.82	1.03405
23.04	0.016452
23.26	51.8457
23.48	7.05593
23.7	96.3696
23.92	9.40897
24.14	0.078242
24.36	3.44549
24.58	7.51189
24.8	5.58386
25.02	6.94853
25.24	6.84616
25.46	10.648
25.68	6.44341
25.9	0.025083
26.12	3.35054
26.34	1.9217
26.56	1.40249
26.78	10.3003
27	13.094
27.22	58.1137
27.44	0.059152
27.66	12.153
27.88	22.1581
28.1	10.4192
28.32	6.7368
28.54	11.7838
28.76	1.78213
28.98	5.54137
29.2	5.6302
29.42	8.1008
29.64	2.90971
29.86	54.2998
30.08	41.7
30.3	10.7159
30.52	4.55798
30.74	7.98255
30.96	30.6327
31.18	388.667
31.4	3.26003
31.62	19.1702
31.84	37.1182
32.06	3.62595
32.28	2.34067
32.5	1.0871
32.72	175.532
32.94	22.4563
33.16	13.4943
33.38	468.667
33.6	5.30566
33.82	3.72926
34.04	4.23467
34.26	57.3348
34.48	8.08422
34.7	1.88927
34.92	6.41213
35.14	5.79362
35.36	7.89528
35.58	3.06201
35.8	6.02813
36.02	11.225
36.24	10.8977
36.46	41.931
36.68	8.28553
36.9	8.93235
37.12	18.6054
37.34	32.6035
37.56	2.33137
37.78	0.015018
38	3.7824
38.22	37.4264
38.44	3.27482
38.66	19.7636
38.88	10.0442
39.1	15.1784
39.32	11.9971
39.54	3.83758
39.76	1.26999
39.98	3.42873
40.2	5.2328
40.42	9.10868
40.64	5.98288
40.86	9.12674
41.08	0.711845
41.3	13.9479
41.52	23.8356
41.74	8.66652
41.96	17.9846
42.18	9.79606
42.4	1.83982
42.62	10.3658
42.84	21.2481
43.06	1.02313
43.28	2.44876
43.5	2.97559
43.72	1.47156
43.94	18.3762
44.16	98.6222
44.38	30.7661
44.6	3.40594
44.82	3.75045
45.04	22.0077
45.26	24.4442
45.48	2.73189
45.7	19.0224
45.92	109.244
46.14	9.59498
46.36	4.6017
46.58	3.30756
46.8	9.14865
47.02	73.7106
47.24	6.01776
47.46	10.3306
47.68	2.19617
47.9	0.936419
48.12	1.07765
48.34	1.02038
48.56	9.30465
48.78	5.48025
49	31.4886
49.22	3.22267
49.44	11.3756
49.66	4.92542
49.88	11.4311
50.1	25.7949
50.32	4.28289
50.54	4.46267
50.76	1.60933
50.98	1.47553
51.2	4.2256
51.42	9.08868
51.64	3.01353
51.86	8.13992
52.08	20.5522
52.3	20.1062
52.52	9.685
52.74	4.13932
52.96	0.901254
53.18	4.70167
53.4	9.93997
53.62	9.06032
53.84	39.0986
54.06	0.485903
54.28	14.2454
54.5	2.27115
54.72	6.83761
54.94	12.9441
55.16	8.07797
55.38	1.22762
55.6	4.27912
55.82	24.9718
56.04	10.0193
56.26	22.3109
56.48	14.3278
56.7	7.39294
56.92	4.58846
57.14	4.77802
57.36	4.82759
57.58	8.95959
57.8	0.027246
58.02	2.31593
58.24	18.4978
58.46	6.45725
58.68	23.4294
58.9	9.3017
59.12	12.4164
59.34	12.1923
59.56	2.72536
59.78	4.21927
60	6.90444
60.22	3.49354
60.44	3.84494
60.66	11.3089
60.88	39.8732
61.1	7.56441
61.32	5.41925
61.54	14.7211
61.76	26.2159
61.98	25.7716
62.2	7.51941
62.42	3.01389
62.64	6.38236
62.86	11.7033
63.08	7.93645
63.3	1.12339
63.52	9.17872
63.74	18.9246
63.96	18.9945
64.18	29.2987
64.4	32.5
64.62	21.0445
64.84	37.7696
65.06	8.76393
65.28	0.961701
65.5	8.20649
65.72	15.2664
65.94	35.3738
66.16	5.59356
66.38	3.76978
66.6	8.28496
66.82	5.84
67.04	13.9221
67.26	4.36922
67.48	0.455369
67.7	0.766211
67.92	15.2588
68.14	5.61406
68.36	2.05755
68.58	5.05375
68.8	17.7564
69.02	15.6643
69.24	7.77356
69.46	5.84429
69.68	6.88231
69.9	4.03693
70.12	2.27722
70.34	20.3111
70.56	10.9779
70.78	1.28177
71	0.972681
71.22	0.040426
71.44	7.792
71.66	8.82732
71.88	7.98026
72.1	5.89452
72.32	10.3389
72.54	3.30638
72.76	20.7151
72.98	6.24805
73.2	16.6121
73.42	4.58095
73.64	10.7387
73.86	6.93033
74.08	2.04603
74.3	5.92278
74.52	7.61033
74.74	6.20783
74.96	8.90211
75.18	3.61831
75.4	17.024
75.62	11.9075
75.84	2.35184
76.06	8.47737
76.28	3.29432
76.5	3.17371
76.72	9.34507
76.94	5.48304
77.16	23.9776
77.38	4.52617
77.6	6.81531
77.82	12.0943
78.04	7.28102
78.26	1.29313
78.48	7.94492
78.7	11.5959
78.92	10.7752
79.14	9.94011
79.36	4.84076
79.58	4.50225
79.8	6.26297
80.02	3.15328
80.24	7.04826
80.46	3.94379
80.68	6.71919
80.9	2.69766
81.12	8.52394
81.34	0.542466
81.56	5.68968
81.78	10.8451
82	0.061588
82.22	0.9542
82.44	4.084
82.66	3.08975
82.88	5.06133
83.1	9.0035
83.32	4.74864
83.54	9.65478
83.76	14.6274
83.98	9.42736
84.2	7.41083
84.42	14.4846
84.64	8.7294
84.86	4.80983
85.08	0.331973
85.3	8.43722
85.52	2.62314
85.74	8.73055
85.96	5.71432
86.18	0.609571
86.4	2.75698
86.62	1.42473
86.84	11.4559
87.06	6.50787
87.28	19.4108
87.5	3.18022
87.72	7.30593
87.94	7.39206
88.16	0.456996
88.38	0.753597
88.6	2.88635
88.82	8.41122
89.04	7.79155
89.26	7.06912
89.48	6.28472
89.7	5.02327
89.92	12.4312
