Measurement: Powder, Xray Data XY Processed
Mineral: Brewsterite-Sr
Rruff sample: R070227
Ideal chemistry: Sr(Al_2_Si_6_)O_16_5H_2_O
Locality: Strontian, North West Highlands (Argyllshire), Scotland, UK
Source: Michael Scott
Description: Colorless to off-white striated prismatic crystals associated with calcite and pyrite on gneissic matrix
Diffraction sample description: Powder
Cell parameters: a: 6.7817(6) b: 17.533(1) c: 7.7567(6) alpha: 90 beta: 94.473(5) gamma: 90 volume: 919.5(2) crystal system: monoclinic
x	intensity
5	0
5.22	15.9649
5.44	9.85456
5.66	11.0902
5.88	3.8636
6.1	11.6927
6.32	13.1665
6.54	8.11438
6.76	11.3122
6.98	11.6772
7.2	6.03904
7.42	3.0179
7.64	8.0208
7.86	14.4799
8.08	9.61697
8.3	4.85198
8.52	9.92192
8.74	9.77441
8.96	11.7792
9.18	5.93665
9.4	4.62071
9.62	11.7853
9.84	10.147
10.06	59.5631
10.28	18.331
10.5	11.4936
10.72	8.6896
10.94	6.64764
11.16	4.80567
11.38	12.7242
11.6	3.34499
11.82	5.20707
12.04	3.42664
12.26	16.1849
12.48	34.2023
12.7	12.9772
12.92	12.4796
13.14	82.258
13.36	6.35899
13.58	4.12434
13.8	10.5331
14.02	120.55
14.24	19.5243
14.46	6.64974
14.68	4.70021
14.9	5.2295
15.12	5.32791
15.34	22.7469
15.56	0.10682
15.78	10.8607
16	11.073
16.22	14.4138
16.44	0.076242
16.66	19.8494
16.88	17.4037
17.1	6.39527
17.32	4.81343
17.54	117.839
17.76	12.9191
17.98	6.92743
18.2	11.3396
18.42	11.4737
18.64	15.1088
18.86	49.8137
19.08	785.332
19.3	14.5879
19.52	19.9752
19.74	47.1603
19.96	3.4174
20.18	4.47033
20.4	1.6058
20.62	4.80598
20.84	20.7704
21.06	5.3495
21.28	15.808
21.5	1.04543
21.72	0.084126
21.94	6.68238
22.16	8.26269
22.38	8.52477
22.6	14.2506
22.82	25.9918
23.04	75.408
23.26	2.71722
23.48	32.4226
23.7	67.2024
23.92	6.33751
24.14	6.17818
24.36	4.11658
24.58	11.3245
24.8	3.51988
25.02	3.08214
25.24	157.201
25.46	7.79253
25.68	12.6034
25.9	19.2192
26.12	13.8747
26.34	17.4089
26.56	3.09032
26.78	9.81909
27	13.1294
27.22	51.8196
27.44	91.7669
27.66	30.0088
27.88	35.053
28.1	30.1785
28.32	6.42038
28.54	11.4782
28.76	124.607
28.98	8.72308
29.2	13.9235
29.42	39.1868
29.64	26.2301
29.86	14.2863
30.08	17.3887
30.3	0.883099
30.52	89.5189
30.74	473.116
30.96	43.631
31.18	0.031046
31.4	59.3434
31.62	4.97814
31.84	12.8137
32.06	21.8181
32.28	6.507
32.5	1.83664
32.72	14.6246
32.94	146.536
33.16	8.02299
33.38	14.3075
33.6	25.9199
33.82	2.57237
34.04	3.9377
34.26	21.7615
34.48	17.9066
34.7	13.6623
34.92	46.0293
35.14	2.12757
35.36	6.84657
35.58	4.81301
35.8	43.7572
36.02	3.13299
36.24	16.7932
36.46	25.7085
36.68	14.5473
36.9	6.29646
37.12	28.5324
37.34	10.3872
37.56	9.57995
37.78	14.9322
38	7.3922
38.22	10.2357
38.44	63.4411
38.66	22.6547
38.88	11.0842
39.1	7.95846
39.32	0.906094
39.54	3.69541
39.76	12.4424
39.98	19.1503
40.2	0.339067
40.42	8.00666
40.64	32.2302
40.86	23.806
41.08	0.487354
41.3	163.24
41.52	10.3005
41.74	8.26661
41.96	6.26677
42.18	14.7505
42.4	34.435
42.62	7.7594
42.84	8.19384
43.06	20.1047
43.28	2.49019
43.5	15.0839
43.72	23.4254
43.94	21.7123
44.16	7.08308
44.38	5.53045
44.6	5.34086
44.82	27.9124
45.04	43.8866
45.26	15.3197
45.48	11.7854
45.7	7.88368
45.92	20.0638
46.14	8.16998
46.36	12.3058
46.58	39.821
46.8	6.30269
47.02	4.34597
47.24	9.11733
47.46	7.41003
47.68	3.35744
47.9	5.70432
48.12	14.7754
48.34	16.1682
48.56	9.53225
48.78	7.33408
49	7.67062
49.22	6.68096
49.44	3.73975
49.66	20.088
49.88	22.1386
50.1	1.44776
50.32	9.9292
50.54	2.47001
50.76	10.0528
50.98	19.1967
51.2	9.15564
51.42	7.90998
51.64	0.069849
51.86	12.0159
52.08	3.16917
52.3	88.9258
52.52	12.6668
52.74	20.1921
52.96	17.0701
53.18	15.9063
53.4	5.59281
53.62	11.3816
53.84	3.67767
54.06	0.480621
54.28	17.2132
54.5	1.59612
54.72	9.04894
54.94	2.25254
55.16	16.1486
55.38	29.9778
55.6	17.7036
55.82	1.98986
56.04	6.96901
56.26	22.0885
56.48	5.51631
56.7	0.932781
56.92	17.5404
57.14	16.0422
57.36	8.60468
57.58	18.0941
57.8	10.9808
58.02	5.75277
58.24	2.84506
58.46	4.15311
58.68	5.71959
58.9	10.7812
59.12	18.5106
59.34	1.47215
59.56	0.991846
59.78	6.43348
60	5.62814
60.22	7.80912
60.44	1.67634
60.66	10.796
60.88	23.3163
61.1	6.11095
61.32	7.33595
61.54	1.45026
61.76	13.3818
61.98	3.14741
62.2	14.9629
62.42	7.53737
62.64	6.99523
62.86	18.2658
63.08	6.02018
63.3	6.34614
63.52	4.45466
63.74	20.4918
63.96	37.448
64.18	2.6682
64.4	15.407
64.62	3.55505
64.84	7.5756
65.06	10.8706
65.28	17.3714
65.5	15.3899
65.72	11.9091
65.94	8.16376
66.16	8.56097
66.38	5.30054
66.6	8.80293
66.82	18.7627
67.04	13.0925
67.26	1.58616
67.48	6.78199
67.7	11.7167
67.92	6.70803
68.14	1.74487
68.36	10.7179
68.58	7.4538
68.8	12.7711
69.02	6.41616
69.24	1.18157
69.46	15.5494
69.68	7.4005
69.9	7.40208
70.12	6.72464
70.34	14.7302
70.56	13.7515
70.78	11.2697
71	7.28283
71.22	8.27417
71.44	10.31
71.66	13.2704
71.88	2.62794
72.1	4.9668
72.32	4.75213
72.54	11.2324
72.76	15.266
72.98	0.016281
73.2	0.045847
73.42	3.25759
73.64	12.3216
73.86	4.26344
74.08	4.78923
74.3	9.64163
74.52	0.957495
74.74	28.2284
74.96	3.47864
75.18	8.62332
75.4	1.01685
75.62	12.561
75.84	2.58218
76.06	12.8143
76.28	13.2123
76.5	0.721294
76.72	7.16138
76.94	1.72226
77.16	5.70984
77.38	9.88434
77.6	6.75446
77.82	1.51547
78.04	10.2559
78.26	6.2133
78.48	1.46033
78.7	11.9378
78.92	5.14421
79.14	3.45988
79.36	7.89214
79.58	1.75774
79.8	4.97934
80.02	7.19118
80.24	4.55674
80.46	2.45429
80.68	13.8659
80.9	9.85118
81.12	1.00889
81.34	6.89674
81.56	17.5678
81.78	10.0828
82	3.95473
82.22	2.0348
82.44	3.86516
82.66	11.5668
82.88	15.4896
83.1	5.52027
83.32	7.49859
83.54	4.86447
83.76	12.9738
83.98	8.23281
84.2	2.48296
84.42	3.80992
84.64	3.20725
84.86	10.9062
85.08	10.122
85.3	12.5966
85.52	6.45699
85.74	1.39623
85.96	4.25542
86.18	5.14313
86.4	3.06771
86.62	17.0707
86.84	12.5063
87.06	8.06278
87.28	5.51712
87.5	10.138
87.72	5.14942
87.94	7.18561
88.16	6.91339
88.38	0.652096
88.6	15.4882
88.82	14.5158
89.04	4.8439
89.26	6.76196
89.48	15.0828
89.7	1.02354
89.92	11.5135
