Measurement: Powder, Xray Data XY Processed
Mineral: Brizziite
Rruff sample: R060611
Ideal chemistry: NaSb^5+^O_3_
Locality: Le Cetine di Cotorniano, Chiusdino, Siena Province, Tuscany, Italy
Source: Michael Scott
Description: Colorless thin hexagonal plates associated with romeite, R060736
Diffraction sample description: Single crystal, powder profile is calculated
Measured chemistry: Na_1.00_Sb_1.00_O_3_; = gray phase with trace amounts of Fe; bright phase: stibiconite
Cell parameters: a: 5.33(2) b: 5.33(2) c: 15.92(5) alpha: 90 beta: 90 gamma: 120 volume: 392.1(2) crystal system: hexagonal
x	intensity
5	0
5.22	0
5.44	0
5.66	0
5.88	0
6.1	0
6.32	0
6.54	0
6.76	0
6.98	0
7.2	0
7.42	0
7.64	0
7.86	0
8.08	0
8.3	0
8.52	0
8.74	0
8.96	0
9.18	0
9.4	0
9.62	0
9.84	0
10.06	0
10.28	0
10.5	0
10.72	0
10.94	0
11.16	0
11.38	0
11.6	0
11.82	0
12.04	0
12.26	0
12.48	0
12.7	0
12.92	0
13.14	0
13.36	0
13.58	0
13.8	0
14.02	0
14.24	0
14.46	0
14.68	0
14.9	0
15.12	0
15.34	0
15.56	0
15.78	0
16	0
16.22	0
16.44	0
16.66	44.453
16.88	0
17.1	0
17.32	0
17.54	0
17.76	0
17.98	0
18.2	0
18.42	0
18.64	0
18.86	0
19.08	0
19.3	0
19.52	0
19.74	0
19.96	7.826
20.18	0.004
20.4	0
20.62	0
20.84	0
21.06	0
21.28	0
21.5	0
21.72	0
21.94	0
22.16	0.587
22.38	0.441
22.6	0
22.82	0
23.04	0
23.26	0
23.48	0
23.7	0
23.92	0
24.14	0
24.36	0
24.58	0
24.8	0
25.02	0
25.24	0
25.46	0
25.68	0
25.9	0
26.12	0
26.34	0
26.56	0
26.78	0
27	0
27.22	0
27.44	0
27.66	0
27.88	0
28.1	0
28.32	0
28.54	0
28.76	0
28.98	0
29.2	0
29.42	0
29.64	30.987
29.86	0
30.08	0
30.3	0
30.52	0
30.74	0
30.96	0
31.18	0
31.4	0
31.62	0
31.84	0
32.06	0
32.28	0
32.5	0
32.72	0
32.94	0
33.16	0
33.38	0
33.6	45.892
33.82	3.844
34.04	0
34.26	3.135
34.48	0
34.7	0
34.92	0
35.14	0
35.36	0
35.58	0
35.8	0
36.02	0
36.24	0
36.46	0
36.68	0
36.9	0
37.12	0
37.34	0
37.56	0
37.78	25.209
38	0
38.22	0
38.44	0
38.66	0
38.88	0
39.1	0
39.32	0.018
39.54	0.798
39.76	0
39.98	0
40.2	0
40.42	0
40.64	2.114
40.86	0.049
41.08	0
41.3	0
41.52	0
41.74	0
41.96	0
42.18	0
42.4	0
42.62	0
42.84	0
43.06	0
43.28	0
43.5	0
43.72	0
43.94	0
44.16	0
44.38	3.544
44.6	0.004
44.82	0
45.04	0
45.26	0.006
45.48	4.558
45.7	0
45.92	0
46.14	0
46.36	0
46.58	0
46.8	0
47.02	0
47.24	0
47.46	0
47.68	0
47.9	0
48.12	0
48.34	29.471
48.56	3.647
48.78	0.907
49	0
49.22	0
49.44	0
49.66	0
49.88	0.012
50.1	0
50.32	0
50.54	0
50.76	0
50.98	0
51.2	0
51.42	0
51.64	1.801
51.86	0.028
52.08	0
52.3	0
52.52	0
52.74	3.971
52.96	0.157
53.18	0
53.4	0
53.62	0.006
53.84	0.861
54.06	0
54.28	0
54.5	0
54.72	0
54.94	0
55.16	0
55.38	0
55.6	0
55.82	0
56.04	0
56.26	0
56.48	0
56.7	0.161
56.92	1.484
57.14	0
57.36	0
57.58	1.915
57.8	5.096
58.02	0
58.24	0
58.46	0
58.68	0
58.9	0
59.12	0
59.34	0
59.56	0
59.78	0
60	0.694
60.22	4.505
60.44	1.764
60.66	0.674
60.88	0
61.1	0
61.32	0
61.54	3.289
61.76	2.247
61.98	0
62.2	0
62.42	0
62.64	0
62.86	7.495
63.08	4.893
63.3	0.145
63.52	0
63.74	0
63.96	0
64.18	0
64.4	0
64.62	0
64.84	0
65.06	0
65.28	0
65.5	0
65.72	0
65.94	0
66.16	0
66.38	0
66.6	0
66.82	0
67.04	0
67.26	0
67.48	0.001
67.7	0.355
67.92	0.048
68.14	0
68.36	0
68.58	0
68.8	0
69.02	0
69.24	0
69.46	0
69.68	0
69.9	0
70.12	0
70.34	0
70.56	0.671
70.78	2.61
71	1.558
71.22	0.47
71.44	0
71.66	0
71.88	0.075
72.1	0.179
72.32	0.023
72.54	0
72.76	0
72.98	0
73.2	3.814
73.42	1.587
73.64	0
73.86	0
74.08	0
74.3	1.066
74.52	0.473
74.74	0
74.96	0.004
75.18	0.179
75.4	0.083
75.62	0
75.84	0
76.06	0
76.28	0
76.5	0
76.72	0
76.94	0
77.16	0
77.38	0
77.6	0
77.82	0.192
78.04	0.082
78.26	0.004
78.48	0.422
78.7	0.375
78.92	0
79.14	0
79.36	0
79.58	0
79.8	0
80.02	0
80.24	0
80.46	0.003
80.68	1.494
80.9	4.28
81.12	2.017
81.34	0.03
81.56	0.01
81.78	1.089
82	0.151
82.22	0.007
82.44	0
82.66	0
82.88	0
83.1	1.89
83.32	0.311
83.54	0.001
83.76	0
83.98	0.331
84.2	0.044
84.42	0
84.64	0
84.86	0.464
85.08	0.316
85.3	0
85.52	0
85.74	0
85.96	0
86.18	0
86.4	0
86.62	0
86.84	0
87.06	0
87.28	0.357
87.5	0.372
87.72	0.082
87.94	0.02
88.16	0.029
88.38	0.208
88.6	0
88.82	0.001
89.04	0
89.26	0
89.48	0
89.7	0
89.92	0
