Measurement: Powder, Xray Data XY Processed
Mineral: Brucite
Rruff sample: R050455
Ideal chemistry: Mg(OH)_2_
Locality: Texas, Lancaster County, Pennsylvania, USA
Source: University of Arizona Mineral Museum
Description: Group of green tabular crystals
Diffraction sample description: Powder
Measured chemistry: (Mg_0.99_Mn_0.01_)(OH)_2_
Cell parameters: a: 3.1543(2) b: 3.1543(2) c: 4.7711(3) alpha: 90 beta: 90 gamma: 120 volume: 41.110(5) crystal system: hexagonal
x	intensity
5	0
5.22	15.0833
5.44	8.35006
5.66	22.2326
5.88	6.69746
6.1	4.34236
6.32	13.4509
6.54	22.2672
6.76	13.0429
6.98	1.19183
7.2	9.60394
7.42	5.11359
7.64	13.5663
7.86	2.85125
8.08	5.35628
8.3	13.6287
8.52	12.4016
8.74	5.07473
8.96	4.16111
9.18	2.7736
9.4	8.51907
9.62	12.5869
9.84	0.286379
10.06	6.4703
10.28	10.4225
10.5	11.717
10.72	5.7112
10.94	9.4769
11.16	13.9526
11.38	2.87585
11.6	11.2083
11.82	15.7251
12.04	5.50371
12.26	6.29377
12.48	15.4354
12.7	9.61644
12.92	8.27782
13.14	12.502
13.36	5.91653
13.58	7.8454
13.8	23.0728
14.02	0.580671
14.24	6.7663
14.46	9.15469
14.68	10.6941
14.9	31.1258
15.12	4.20423
15.34	26.8357
15.56	8.85403
15.78	6.36852
16	10.4169
16.22	1.95591
16.44	9.83965
16.66	21.9572
16.88	22.6318
17.1	11.0913
17.32	4.86462
17.54	1.02679
17.76	7.55237
17.98	32.6811
18.2	70.0003
18.42	213.013
18.64	7289.71
18.86	127.402
19.08	32.289
19.3	0.769684
19.52	4.78629
19.74	11.841
19.96	1.01924
20.18	2.74591
20.4	10.2829
20.62	18.4187
20.84	17.5998
21.06	6.50293
21.28	7.01849
21.5	4.13314
21.72	20.3574
21.94	12.1284
22.16	3.99676
22.38	4.99986
22.6	3.87708
22.82	1.42717
23.04	17.6877
23.26	15.6174
23.48	24.5161
23.7	13.8427
23.92	12.9494
24.14	11.0954
24.36	3.12527
24.58	9.51624
24.8	15.5991
25.02	10.1748
25.24	6.03683
25.46	9.57539
25.68	8.85446
25.9	2.8146
26.12	20.0223
26.34	13.3691
26.56	3.45301
26.78	6.66178
27	10.54
27.22	5.63675
27.44	5.46298
27.66	1.51182
27.88	5.09371
28.1	14.1322
28.32	7.10318
28.54	7.98218
28.76	4.22403
28.98	10.428
29.2	12.3322
29.42	4.44747
29.64	13.5206
29.86	7.48842
30.08	16.7769
30.3	12.8027
30.52	9.30063
30.74	9.60241
30.96	6.6558
31.18	6.27392
31.4	1.01045
31.62	3.99784
31.84	5.91194
32.06	10.9454
32.28	5.07006
32.5	15.0352
32.72	15.1266
32.94	17.3227
33.16	14.1296
33.38	6.01216
33.6	1.82813
33.82	8.85605
34.04	14.0435
34.26	22.0146
34.48	9.81416
34.7	10.7151
34.92	10.9559
35.14	11.9099
35.36	0.514843
35.58	13.1287
35.8	5.67423
36.02	6.47182
36.24	3.71884
36.46	6.40451
36.68	1.5532
36.9	4.59114
37.12	2.35957
37.34	12.7917
37.56	32.9834
37.78	149.632
38	734.63
38.22	106.573
38.44	33.1642
38.66	17.2675
38.88	9.26191
39.1	2.37649
39.32	1.76913
39.54	5.68786
39.76	8.53198
39.98	13.3418
40.2	16.129
40.42	5.56939
40.64	10.6853
40.86	11.639
41.08	4.15338
41.3	12.064
41.52	0.892282
41.74	0.924667
41.96	8.14076
42.18	3.29613
42.4	1.54302
42.62	14.523
42.84	2.07062
43.06	16.13
43.28	11.333
43.5	15.5283
43.72	10.78
43.94	2.64027
44.16	2.062
44.38	15.2574
44.6	13.2562
44.82	1.18803
45.04	8.47554
45.26	9.24418
45.48	7.15122
45.7	7.03387
45.92	1.01666
46.14	8.96621
46.36	5.82584
46.58	8.08275
46.8	7.94574
47.02	6.98387
47.24	8.75779
47.46	4.85514
47.68	3.19455
47.9	6.87585
48.12	14.7086
48.34	1.3543
48.56	16.2503
48.78	0.573977
49	0.678839
49.22	13.625
49.44	7.96342
49.66	21.4143
49.88	4.25971
50.1	4.6777
50.32	29.0206
50.54	51.8301
50.76	357.417
50.98	222.297
51.2	42.2506
51.42	15.917
51.64	2.57454
51.86	13.3126
52.08	16.92
52.3	7.70741
52.52	4.70231
52.74	2.85339
52.96	12.0497
53.18	10.2992
53.4	1.63236
53.62	10.3999
53.84	8.83415
54.06	12.1655
54.28	8.10111
54.5	7.31243
54.72	5.47649
54.94	14.6326
55.16	5.15991
55.38	15.9798
55.6	8.15787
55.82	3.53825
56.04	2.62551
56.26	13.6355
56.48	10.6278
56.7	8.93146
56.92	14.5347
57.14	9.08866
57.36	3.58293
57.58	7.15402
57.8	4.91784
58.02	20.3075
58.24	18.3063
58.46	64.4034
58.68	61.402
58.9	6.15614
59.12	19.2482
59.34	6.66532
59.56	2.0534
59.78	8.21801
60	4.65336
60.22	4.09321
60.44	11.158
60.66	0.958452
60.88	11.6351
61.1	7.1818
61.32	11.9727
61.54	1.73023
61.76	24.4984
61.98	44.3152
62.2	21.3236
62.42	3.55347
62.64	10.7244
62.86	0.128881
63.08	6.46605
63.3	3.98636
63.52	3.584
63.74	10.3141
63.96	5.70034
64.18	2.9216
64.4	4.30089
64.62	13.6058
64.84	10.7219
65.06	8.69888
65.28	6.66106
65.5	0.547271
65.72	13.694
65.94	13.649
66.16	5.27305
66.38	10.8127
66.6	4.19437
66.82	10.6294
67.04	5.96504
67.26	14.7809
67.48	7.19681
67.7	11.7197
67.92	11.151
68.14	112.709
68.36	90.3706
68.58	39.5586
68.8	9.99871
69.02	1.60549
69.24	3.96798
69.46	7.54615
69.68	7.3221
69.9	2.9275
70.12	10.7716
70.34	1.86687
70.56	10.0649
70.78	6.95067
71	11.6052
71.22	9.60226
71.44	3.39248
71.66	14.4502
71.88	22.6602
72.1	21.8702
72.32	12.8371
72.54	2.93763
72.76	10.2642
72.98	8.58797
73.2	12.4906
73.42	3.87772
73.64	8.19539
73.86	5.45936
74.08	6.73606
74.3	12.2153
74.52	1.02605
74.74	8.05279
74.96	7.03364
75.18	9.96734
75.4	12.1335
75.62	3.69435
75.84	5.59695
76.06	0.701948
76.28	12.012
76.5	9.01853
76.72	1.2363
76.94	19.5647
77.16	9.76796
77.38	13.0294
77.6	12.0742
77.82	5.98892
78.04	4.96606
78.26	2.17292
78.48	1.98203
78.7	12.9757
78.92	11.5811
79.14	7.12928
79.36	25.5715
79.58	1.11418
79.8	4.48408
80.02	3.95025
80.24	10.6462
80.46	36.8896
80.68	18.0256
80.9	10.5728
81.12	33.3341
81.34	17.7564
81.56	6.25939
81.78	5.77158
82	4.48905
82.22	3.17007
82.44	1.41117
82.66	13.0925
82.88	12.5648
83.1	1.58383
83.32	3.62618
83.54	10.4118
83.76	3.65666
83.98	10.7033
84.2	5.80803
84.42	1.82902
84.64	5.7368
84.86	4.00102
85.08	6.029
85.3	11.2524
85.52	3.2574
85.74	1.08322
85.96	7.94994
86.18	4.59101
86.4	2.44835
86.62	7.16198
86.84	3.22828
87.06	9.25225
87.28	20.3417
87.5	7.48035
87.72	2.88727
87.94	9.61625
88.16	6.68027
88.38	1.65369
88.6	13.0756
88.82	2.23638
89.04	14.0161
89.26	14.6695
89.48	13.7169
89.7	26.0836
89.92	13.4794
