Measurement: Powder, Xray Data XY Processed
Mineral: Buddingtonite
Rruff sample: R061115
Ideal chemistry: (N^3-^H_4_)AlSi_3_O_8_
Locality: Sharon Heights, Menlo Park, Santa Clara County, California, USA
Source: Michael Scott
Description: Grey fine-grained massive
Diffraction sample description: Powder
Cell parameters: a: 8.8042(7) b: 13.048(1) c: 7.1972(4) alpha: 90 beta: 116.085(5) gamma: 90 volume: 742.59(6) crystal system: monoclinic
x	intensity
5	0
5.22	10.3122
5.44	10.1273
5.66	8.834
5.88	6.95511
6.1	9.50005
6.32	17.7554
6.54	5.59202
6.76	12.5813
6.98	7.56177
7.2	2.89351
7.42	0.878096
7.64	1.11572
7.86	9.89578
8.08	13.7471
8.3	10.4062
8.52	10.6803
8.74	6.52779
8.96	17.843
9.18	9.70601
9.4	10.3958
9.62	4.15787
9.84	3.45339
10.06	4.40496
10.28	3.15517
10.5	6.17938
10.72	5.69751
10.94	22.0198
11.16	2.12958
11.38	4.90045
11.6	16.1794
11.82	2.07528
12.04	4.55019
12.26	6.44315
12.48	3.73454
12.7	0.906019
12.92	6.75879
13.14	42.5131
13.36	15.1128
13.58	164.279
13.8	18.2917
14.02	9.47689
14.24	9.33218
14.46	3.35064
14.68	24.6141
14.9	19.1622
15.12	25.175
15.34	12.7079
15.56	9.03079
15.78	14.0426
16	2.66357
16.22	13.9631
16.44	24.7741
16.66	9.63738
16.88	7.02353
17.1	10.8769
17.32	7.55807
17.54	7.46404
17.76	22.4514
17.98	12.6799
18.2	2.66771
18.42	11.8238
18.64	6.48455
18.86	9.47122
19.08	1.17627
19.3	5.86984
19.52	5.77012
19.74	10.9174
19.96	25.4527
20.18	18.5703
20.4	25.0751
20.62	84.4431
20.84	16.215
21.06	21.9612
21.28	8.32366
21.5	18.0377
21.72	0.658718
21.94	3.23015
22.16	14.3416
22.38	61.404
22.6	9.9053
22.82	0.76841
23.04	2.13897
23.26	69.3727
23.48	35.6799
23.7	13.904
23.92	14.4074
24.14	4.74762
24.36	11.9721
24.58	0.266441
24.8	12.8461
25.02	18.4669
25.24	2.7594
25.46	9.54274
25.68	25.4489
25.9	9.53109
26.12	9.48827
26.34	158.074
26.56	31.3511
26.78	33.2408
27	35.772
27.22	22.5718
27.44	54.0066
27.66	77.9366
27.88	7.51099
28.1	16.9239
28.32	2.03565
28.54	12.0128
28.76	11.9136
28.98	3.29135
29.2	12.2492
29.42	11.4885
29.64	73.7945
29.86	14.6329
30.08	12.9249
30.3	28.0995
30.52	12.4411
30.74	38.5261
30.96	14.2648
31.18	33.9168
31.4	7.32664
31.62	5.67791
31.84	4.94966
32.06	11.4312
32.28	21.6997
32.5	3.36627
32.72	9.29595
32.94	10.5331
33.16	8.00134
33.38	11.8416
33.6	8.87243
33.82	5.48616
34.04	10.0741
34.26	11.1639
34.48	19.8273
34.7	13.6573
34.92	14.0218
35.14	15.5584
35.36	10.1374
35.58	25.1982
35.8	19.861
36.02	10.6035
36.24	13.5823
36.46	0.749674
36.68	15.2361
36.9	22.7253
37.12	4.27898
37.34	9.81782
37.56	14.7954
37.78	21.5959
38	12.9826
38.22	5.22486
38.44	12.1479
38.66	10.2372
38.88	8.20466
39.1	4.08441
39.32	7.08697
39.54	14.2065
39.76	0.04501
39.98	0.893198
40.2	8.48122
40.42	10.735
40.64	2.25255
40.86	2.88133
41.08	5.71508
41.3	11.3581
41.52	25.169
41.74	9.25204
41.96	5.87965
42.18	5.8907
42.4	7.1684
42.62	14.9601
42.84	0.705011
43.06	7.64934
43.28	8.97647
43.5	3.3948
43.72	3.49756
43.94	24.7239
44.16	17.912
44.38	12.1715
44.6	9.26636
44.82	2.27781
45.04	8.08654
45.26	7.44812
45.48	19.6771
45.7	10.2053
45.92	22.5508
46.14	1.22346
46.36	12.8634
46.58	6.22827
46.8	8.37247
47.02	13.8734
47.24	13.9641
47.46	5.55269
47.68	0.863865
47.9	8.26945
48.12	2.35858
48.34	2.70264
48.56	7.97072
48.78	6.70514
49	11.7004
49.22	9.73595
49.44	1.87796
49.66	8.4071
49.88	16.343
50.1	2.68584
50.32	10.2538
50.54	23.8604
50.76	17.1188
50.98	11.1593
51.2	8.34877
51.42	3.34745
51.64	0.538939
51.86	4.63719
52.08	16.6497
52.3	12.6745
52.52	7.5464
52.74	6.37405
52.96	12.5081
53.18	13.3993
53.4	9.59315
53.62	4.12826
53.84	7.55866
54.06	0.591749
54.28	10.4239
54.5	10.585
54.72	3.73692
54.94	5.00288
55.16	6.36907
55.38	20.1398
55.6	6.27844
55.82	14.6123
56.04	15.3312
56.26	2.8085
56.48	7.42837
56.7	8.01878
56.92	9.19416
57.14	4.63893
57.36	6.73586
57.58	9.6461
57.8	5.93288
58.02	5.06631
58.24	3.875
58.46	9.55521
58.68	6.79414
58.9	12.76
59.12	14.2374
59.34	10.1131
59.56	6.69513
59.78	10.3452
60	8.68727
60.22	4.3234
60.44	0.036924
60.66	8.78195
60.88	4.08918
61.1	8.7759
61.32	8.96698
61.54	9.1355
61.76	8.55415
61.98	3.0027
62.2	1.43198
62.42	2.79314
62.64	7.10994
62.86	4.45278
63.08	1.97437
63.3	13.0529
63.52	6.10747
63.74	13.9614
63.96	6.99225
64.18	2.16362
64.4	9.65165
64.62	3.91042
64.84	12.9233
65.06	7.0619
65.28	8.68547
65.5	5.65065
65.72	9.76954
65.94	11.931
66.16	4.96006
66.38	8.11979
66.6	1.28303
66.82	12.2443
67.04	10.9186
67.26	8.79337
67.48	4.77911
67.7	8.98457
67.92	4.19844
68.14	4.52712
68.36	4.51525
68.58	4.67236
68.8	1.60426
69.02	9.52419
69.24	4.61725
69.46	4.66945
69.68	10.8932
69.9	8.46253
70.12	6.71425
70.34	9.60127
70.56	2.31504
70.78	11.3205
71	16.2756
71.22	17.2453
71.44	0.362435
71.66	13.4644
71.88	6.48374
72.1	8.73345
72.32	11.3166
72.54	6.36447
72.76	6.7833
72.98	2.73218
73.2	12.8561
73.42	8.88377
73.64	6.85334
73.86	9.01226
74.08	5.84589
74.3	4.85908
74.52	7.76511
74.74	5.63396
74.96	11.6803
75.18	6.30613
75.4	9.59208
75.62	0.37461
75.84	3.00298
76.06	7.37775
76.28	3.3737
76.5	2.42116
76.72	7.73303
76.94	4.58785
77.16	7.78131
77.38	5.88281
77.6	5.41489
77.82	2.31262
78.04	6.38823
78.26	4.08833
78.48	3.68172
78.7	0.629214
78.92	2.71875
79.14	11.6019
79.36	1.41763
79.58	12.3076
79.8	2.29221
80.02	2.86759
80.24	8.19488
80.46	3.16846
80.68	11.2516
80.9	8.7223
81.12	5.26953
81.34	2.14168
81.56	4.41857
81.78	4.4807
82	6.38147
82.22	5.0411
82.44	6.06597
82.66	7.09
82.88	14.9572
83.1	9.83074
83.32	1.39786
83.54	8.87111
83.76	6.1792
83.98	14.0464
84.2	7.08289
84.42	7.51277
84.64	2.88579
84.86	10.0034
85.08	9.04987
85.3	6.21815
85.52	17.4199
85.74	8.60461
85.96	4.6785
86.18	8.56591
86.4	6.66841
86.62	2.77197
86.84	6.43133
87.06	3.39781
87.28	12.4851
87.5	15.5731
87.72	3.15037
87.94	8.54932
88.16	13.841
88.38	11.9622
88.6	0.814292
88.82	12.6088
89.04	7.76851
89.26	10.9593
89.48	7.34903
89.7	0.370754
89.92	10.0573
