Measurement: Powder, Xray Data XY Processed
Mineral: Bukovskyite
Rruff sample: R050630
Ideal chemistry: Fe^3+^_2_(As^5+^O_4_)(S^6+^O_4_)(OH)7H_2_O
Locality: Kutna Hora, Bohemia, Czechoslovakia
Source: University of Arizona Mineral Museum
Description: Compact aggregate of microscopic randomly oriented colorless acicular crystals
Diffraction sample description: Powder
Measured chemistry: (Fe^3+^_1.97_Al_0.03_)((As_0.98_P_0.02_)O_4_)(S_1.00_O_4_)((OH)_0.94_F_0.03_Cl_0.03_)Â·7H_2_O
x	intensity
5	0
5.22	2.7
5.44	25.781
5.66	19.542
5.88	25.648
6.1	14.53
6.32	9.339
6.54	35.058
6.76	17.485
6.98	26.859
7.2	12.862
7.42	26.321
7.64	8.456
7.86	32.117
8.08	22.711
8.3	15.777
8.52	6.481
8.74	18.151
8.96	13.92
9.18	59.876
9.4	22.52
9.62	133.854
9.84	8.533
10.06	21.629
10.28	4.121
10.5	2.075
10.72	23.861
10.94	11.262
11.16	23.384
11.38	13.59
11.6	9.779
11.82	5.312
12.04	24.057
12.26	6.419
12.48	18.032
12.7	10.96
12.92	30.501
13.14	19.288
13.36	17.112
13.58	11.71
13.8	2.448
14.02	26.062
14.24	15.342
14.46	19.167
14.68	27.43
14.9	32.818
15.12	21.209
15.34	14.352
15.56	8.71
15.78	4.905
16	21.242
16.22	11.763
16.44	0.965
16.66	40.032
16.88	20.328
17.1	17.771
17.32	9.954
17.54	18.138
17.76	11.14
17.98	17.263
18.2	8.732
18.42	9.485
18.64	4.627
18.86	3.243
19.08	20.883
19.3	21.492
19.52	6.186
19.74	10.532
19.96	17.501
20.18	7.958
20.4	13.376
20.62	24.611
20.84	12.081
21.06	17.93
21.28	10.97
21.5	21.777
21.72	19.597
21.94	11.216
22.16	8.648
22.38	25.424
22.6	33.43
22.82	27.047
23.04	28.245
23.26	9.593
23.48	22.533
23.7	7.123
23.92	28.508
24.14	28.153
24.36	4.008
24.58	22.882
24.8	40.157
25.02	26.656
25.24	22.471
25.46	25.456
25.68	18.526
25.9	21.8
26.12	18.239
26.34	28.504
26.56	26.23
26.78	25.113
27	6.242
27.22	39.078
27.44	27.919
27.66	6.422
27.88	24.048
28.1	7.623
28.32	8.655
28.54	3.936
28.76	25.877
28.98	48.164
29.2	18.623
29.42	25.145
29.64	16.221
29.86	11.327
30.08	14.838
30.3	26.288
30.52	31.416
30.74	26.628
30.96	6.367
31.18	8.043
31.4	25.597
31.62	11.948
31.84	9.265
32.06	7.348
32.28	15.564
32.5	37.603
32.72	23.293
32.94	20.008
33.16	5.747
33.38	31.169
33.6	29.311
33.82	24.876
34.04	10.365
34.26	36.863
34.48	25.243
34.7	28.276
34.92	33.937
35.14	18.614
35.36	40.262
35.58	22.185
35.8	0.135
36.02	5.589
36.24	11.843
36.46	8.903
36.68	29.354
36.9	30.667
37.12	7.004
37.34	22.618
37.56	3.151
37.78	29.115
38	21.336
38.22	17.731
38.44	22.541
38.66	14.646
38.88	28.239
39.1	17.526
39.32	27.267
39.54	41.234
39.76	14.041
39.98	15.977
40.2	5.93
40.42	2.544
40.64	11.085
40.86	22.22
41.08	25.661
41.3	18.607
41.52	18.873
41.74	25.559
41.96	17.355
42.18	20.375
42.4	5.143
42.62	25.121
42.84	20.274
43.06	4.429
43.28	31.834
43.5	22.247
43.72	17.042
43.94	24.799
44.16	10.698
44.38	30.793
44.6	14.806
44.82	18.338
45.04	30.644
45.26	7.59
45.48	13.207
45.7	14.191
45.92	37.013
46.14	1.793
46.36	29.483
46.58	37.677
46.8	17.207
47.02	8.464
47.24	16.26
47.46	15.667
47.68	10.357
47.9	6.57
48.12	9.237
48.34	10.204
48.56	17.505
48.78	6.795
49	9.098
49.22	30.409
49.44	16.284
49.66	21.777
49.88	24.884
50.1	7.191
50.32	34.247
50.54	4.266
50.76	4.729
50.98	15.467
51.2	12.538
51.42	48.995
51.64	26.307
51.86	23.117
52.08	6.923
52.3	32.553
52.52	23.524
52.74	16.341
52.96	18.138
53.18	14.61
53.4	29.338
53.62	20.292
53.84	2.984
54.06	23.769
54.28	22.752
54.5	0.067
54.72	12.401
54.94	15.74
55.16	1.301
55.38	27.943
55.6	2.398
55.82	22.659
56.04	1.508
56.26	23.01
56.48	8.561
56.7	10.619
56.92	15.962
57.14	32.25
57.36	14.621
57.58	25.388
57.8	12.531
58.02	18.393
58.24	15.293
58.46	23.389
58.68	23.021
58.9	17.444
59.12	4.042
59.34	32.638
59.56	11.586
59.78	34.78
60	18.003
60.22	18.232
60.44	21.212
60.66	14.369
60.88	33.75
61.1	20.018
61.32	16.8
61.54	19.608
61.76	19.106
61.98	19.4
62.2	1.676
62.42	6.754
62.64	3.048
62.86	22.566
63.08	3.089
63.3	12.649
63.52	8.081
63.74	18.489
63.96	8.255
64.18	17.744
64.4	11.523
64.62	9.381
64.84	17.403
65.06	13.264
65.28	30.4
65.5	5.855
65.72	29.311
65.94	43.101
66.16	41.282
66.38	24.367
66.6	37.72
66.82	10.211
67.04	5.586
67.26	22.467
67.48	16.378
67.7	24.945
67.92	14.367
68.14	28.192
68.36	31.904
68.58	8.286
68.8	29.527
69.02	25.948
69.24	16.95
69.46	6.599
69.68	16.479
69.9	19.625
70.12	8.664
70.34	28.141
70.56	13.243
70.78	17.868
71	20.038
71.22	4.414
71.44	16.885
71.66	21.842
71.88	39.009
72.1	2.295
72.32	34.89
72.54	27.066
72.76	15.39
72.98	17.701
73.2	27.63
73.42	15.134
73.64	3.23
73.86	24.054
74.08	25.769
74.3	22.76
74.52	28.962
74.74	20.548
74.96	21.536
75.18	2.648
75.4	5.108
75.62	0.998
75.84	29.503
76.06	13.825
76.28	26.85
76.5	1.01
76.72	12.072
76.94	33.927
77.16	20.092
77.38	9.893
77.6	21.43
77.82	3.894
78.04	21.094
78.26	32.341
78.48	8.142
78.7	20.158
78.92	19.567
79.14	29.504
79.36	6.107
79.58	27.182
79.8	5.868
80.02	23.723
80.24	9.329
80.46	5.187
80.68	19.658
80.9	26.739
81.12	8.805
81.34	38.27
81.56	9.293
81.78	13.906
82	1.608
82.22	23.966
82.44	43.393
82.66	20.148
82.88	26.76
83.1	29.962
83.32	15.012
83.54	19.744
83.76	11.84
83.98	0.281
84.2	0.545
84.42	29.706
84.64	29.339
84.86	22.14
85.08	15.057
85.3	7.952
85.52	2.298
85.74	4.799
85.96	18.247
86.18	29.051
86.4	4.382
86.62	20.509
86.84	34.319
87.06	24.089
87.28	15.016
87.5	18.137
87.72	17.042
87.94	36.345
88.16	1.258
88.38	24.438
88.6	15.838
88.82	6.591
89.04	11.106
89.26	13.899
89.48	9.865
89.7	23.164
89.92	13.345
