Measurement: Powder, Xray Data XY Processed
Mineral: Burbankite
Rruff sample: R050646
Ideal chemistry: (Na,Ca)_3_(Sr,Ba,Ce)_3_(CO_3_)_5_
Locality: Cerro Sapo, Cochabamba Department, Bolivia
Source: Marcus Origlieri
Description: Brown prismatic crystals associated with blue sodalite, R060405, and dolomite
Diffraction sample description: Powder
Measured chemistry: gray: (Na_2.03_Ca_0.97_)_Σ=3_(Sr_3.14_Ba_0.18_Ce_0.17_[box]_0.15_Th_0.10_Nd_0.08_La_0.08_)_Σ=3_(CO_3_)_5_ ; light-gray: (Na_1.97_Ca_1.03_)_Σ=3_(Sr_1.87_[box]_0.40_Ba_0.37_Ce_0.14_Th_0.11_Nd_0.06_La_0.05_)_Σ=3_(CO_3_)_5_ ; C estimated by stoichiometry
Cell parameters: a: 10.5173(5) b: 10.5173(5) c: 6.4759(4) alpha: 90. beta: 90. gamma: 120. volume: 620.36(4) crystal system: hexagonal
x	intensity
5	0
5.22	13.721
5.44	9.154
5.66	2.382
5.88	1.392
6.1	3.161
6.32	21.44
6.54	7.03
6.76	11.095
6.98	11.684
7.2	3.406
7.42	5.899
7.64	22.557
7.86	13.272
8.08	11.882
8.3	3.461
8.52	20.956
8.74	14.467
8.96	9.338
9.18	7.856
9.4	16.627
9.62	35.776
9.84	16.087
10.06	8.56
10.28	9.86
10.5	4.201
10.72	7.53
10.94	7.837
11.16	0.771
11.38	6.827
11.6	4.879
11.82	7.598
12.04	2.821
12.26	0.857
12.48	5.088
12.7	3.098
12.92	6.168
13.14	3.04
13.36	2.043
13.58	4.033
13.8	17.155
14.02	7.337
14.24	9.255
14.46	8.121
14.68	4.104
14.9	5.083
15.12	5.223
15.34	8.08
15.56	3.083
15.78	1.109
16	6.975
16.22	10.175
16.44	10.172
16.66	15.506
16.88	121.591
17.1	12.66
17.32	6.519
17.54	5.282
17.76	2.508
17.98	0.695
18.2	1.832
18.42	4.763
18.64	3.558
18.86	2.368
19.08	9.186
19.3	10.081
19.52	48.877
19.74	6.965
19.96	5.994
20.18	6.085
20.4	26.811
20.62	0.871
20.84	2.878
21.06	4.022
21.28	1.826
21.5	4.435
21.72	0.692
21.94	10.139
22.16	9.499
22.38	9.541
22.6	4.34
22.82	11.236
23.04	18.196
23.26	3.896
23.48	8.739
23.7	15.809
23.92	132.512
24.14	13.351
24.36	4.222
24.58	10.676
24.8	8.473
25.02	2.433
25.24	6.747
25.46	1.4
25.68	6.634
25.9	33.605
26.12	13.094
26.34	2.972
26.56	0.845
26.78	6.44
27	2.419
27.22	17.526
27.44	13.573
27.66	19.123
27.88	1.715
28.1	0.918
28.32	3.805
28.54	1.679
28.76	13.579
28.98	8.664
29.2	15.458
29.42	155.815
29.64	11.692
29.86	4.428
30.08	5.464
30.3	7.336
30.52	4.577
30.74	12.685
30.96	2.806
31.18	10.003
31.4	14.863
31.62	6.876
31.84	4.662
32.06	4.878
32.28	6.754
32.5	48.509
32.72	12.316
32.94	8.073
33.16	0.058
33.38	1.685
33.6	3.899
33.82	30.924
34.04	178.35
34.26	27.296
34.48	6.023
34.7	8.304
34.92	1.627
35.14	6.237
35.36	1.4
35.58	14.647
35.8	0.132
36.02	3.786
36.24	0.185
36.46	5.993
36.68	2.256
36.9	3.311
37.12	5.297
37.34	0.379
37.56	7.131
37.78	1.623
38	4.646
38.22	50.23
38.44	9.327
38.66	21.315
38.88	9.438
39.1	10.304
39.32	12.453
39.54	37.388
39.76	4.147
39.98	6.114
40.2	1.616
40.42	4.674
40.64	12.932
40.86	18.539
41.08	10.13
41.3	4.457
41.52	6.249
41.74	10.676
41.96	35.407
42.18	83.18
42.4	6.022
42.62	0.443
42.84	6.029
43.06	29.183
43.28	12.194
43.5	4.221
43.72	6.223
43.94	13.199
44.16	5.431
44.38	69.396
44.6	14.372
44.82	0.062
45.04	0.198
45.26	5.86
45.48	19.782
45.7	20.925
45.92	13.159
46.14	5.513
46.36	15.812
46.58	67.649
46.8	16.974
47.02	5.296
47.24	3.609
47.46	0.497
47.68	15.941
47.9	10.074
48.12	2.248
48.34	7.349
48.56	5.305
48.78	5.684
49	26.732
49.22	4.244
49.44	2.371
49.66	9.453
49.88	7.644
50.1	0.953
50.32	5.076
50.54	5.329
50.76	14.366
50.98	0.355
51.2	3.359
51.42	2.949
51.64	1.708
51.86	11.644
52.08	35.397
52.3	18.337
52.52	7.864
52.74	2.109
52.96	1.706
53.18	0.682
53.4	14.037
53.62	2.245
53.84	1.681
54.06	11.138
54.28	5.205
54.5	4.308
54.72	6.697
54.94	5.859
55.16	54.876
55.38	23.261
55.6	4.47
55.82	1.241
56.04	11.672
56.26	3.863
56.48	5.001
56.7	5.261
56.92	6.093
57.14	11.012
57.36	3.16
57.58	4.437
57.8	0.195
58.02	11.087
58.24	13.258
58.46	0.851
58.68	4.955
58.9	7.024
59.12	5.948
59.34	14.07
59.56	3.08
59.78	3
60	11.726
60.22	2.885
60.44	2.289
60.66	11.38
60.88	13.324
61.1	14.338
61.32	8.354
61.54	4.372
61.76	6.557
61.98	6.692
62.2	10.854
62.42	5.16
62.64	0.123
62.86	3.621
63.08	4.68
63.3	2.733
63.52	1.846
63.74	15.797
63.96	12.956
64.18	4.772
64.4	2.738
64.62	0.394
64.84	4.494
65.06	6.85
65.28	11.936
65.5	11.185
65.72	13.24
65.94	6.17
66.16	6.518
66.38	11.571
66.6	0.589
66.82	4.484
67.04	4.392
67.26	5.324
67.48	0.08
67.7	3.741
67.92	17.339
68.14	16.607
68.36	7.873
68.58	5.678
68.8	4.354
69.02	5.336
69.24	4.482
69.46	7.916
69.68	6.994
69.9	8.269
70.12	6.31
70.34	5.436
70.56	6.128
70.78	4.828
71	3.276
71.22	3.84
71.44	8.083
71.66	5.452
71.88	11.302
72.1	8.416
72.32	4.361
72.54	5.489
72.76	6.846
72.98	11.847
73.2	6.834
73.42	3.688
73.64	2.734
73.86	1.444
74.08	11.152
74.3	2
74.52	2.751
74.74	0.871
74.96	6.034
75.18	5.686
75.4	3.636
75.62	3.705
75.84	1.731
76.06	5.721
76.28	5.697
76.5	9.534
76.72	5.838
76.94	12.072
77.16	7.959
77.38	3.552
77.6	1.466
77.82	12.456
78.04	7.296
78.26	5.205
78.48	10.072
78.7	11.065
78.92	11.22
79.14	9.162
79.36	15.151
79.58	8.2
79.8	3.373
80.02	8.801
80.24	0.985
80.46	4.075
80.68	4.16
80.9	4.226
81.12	6.349
81.34	6.178
81.56	8.955
81.78	4.927
82	10.8
82.22	2.196
82.44	2.623
82.66	15.091
82.88	16.267
83.1	4.515
83.32	0.717
83.54	5.744
83.76	8.925
83.98	5.405
84.2	3.386
84.42	0.405
84.64	0.609
84.86	2.629
85.08	8.237
85.3	7.243
85.52	2.951
85.74	9.899
85.96	8.739
86.18	6.627
86.4	0.493
86.62	16.464
86.84	14.52
87.06	7.329
87.28	1.377
87.5	4.364
87.72	6.29
87.94	7.193
88.16	12.052
88.38	2.965
88.6	3.74
88.82	11.08
89.04	6.559
89.26	5.141
89.48	0.453
89.7	2.733
89.92	8.637
