Measurement: Powder, Xray Data XY Processed
Mineral: Burkeite
Rruff sample: R060112
Ideal chemistry: Na_4_(S^6+^O_4_)(CO_3_)
Locality: Searles Lake, near Trona, San Bernardino County, California, USA
Source: University of Arizona Mineral Museum
Description: Tan colored nodule covered with white thenardite powder
Diffraction sample description: Powder, mixed with thenardite
Measured chemistry: Na_4.00_S_1.00_O_4_CO_3_ ; C not measured but estimated by difference.
Cell parameters: a: 5.159(1) b: 9.214(2) c: 7.050(1) alpha: 90 beta: 90 gamma: 90 volume: 335.2(0) crystal system: orthorhombic
x	intensity
5	0
5.22	15.508
5.44	6.57
5.66	3.919
5.88	14.302
6.1	6.73
6.32	0.826
6.54	0.542
6.76	10.365
6.98	0.065
7.2	14.529
7.42	0.308
7.64	3.316
7.86	9.193
8.08	6.883
8.3	4.532
8.52	3.986
8.74	1.587
8.96	12.937
9.18	1.336
9.4	5.76
9.62	3.865
9.84	5.926
10.06	4.062
10.28	5.229
10.5	5.55
10.72	4.888
10.94	2.327
11.16	2.756
11.38	4.228
11.6	0.791
11.82	7.346
12.04	0.134
12.26	10.361
12.48	7.31
12.7	5.522
12.92	1.249
13.14	3.896
13.36	4.081
13.58	0.054
13.8	3.007
14.02	5.873
14.24	5.666
14.46	4.725
14.68	4.512
14.9	3.451
15.12	5.449
15.34	0.525
15.56	1.575
15.78	6.468
16	5.528
16.22	9.558
16.44	3.553
16.66	2.513
16.88	0.81
17.1	1.84
17.32	11.119
17.54	0.158
17.76	4.042
17.98	2.096
18.2	9.05
18.42	5.999
18.64	4.972
18.86	6.951
19.08	2.138
19.3	0.837
19.52	5.402
19.74	11.435
19.96	5.502
20.18	4.533
20.4	5.39
20.62	2.338
20.84	5.47
21.06	2.483
21.28	5.594
21.5	8.46
21.72	5.202
21.94	0.943
22.16	4.769
22.38	2.373
22.6	5.154
22.82	0.95
23.04	8.979
23.26	22.795
23.48	64.513
23.7	31.461
23.92	5.524
24.14	3.461
24.36	5.406
24.58	4.354
24.8	0.628
25.02	8.31
25.24	59.45
25.46	41.499
25.68	5.387
25.9	2.283
26.12	21.978
26.34	2.926
26.56	1.902
26.78	6.01
27	6.919
27.22	2.279
27.44	5.292
27.66	2.176
27.88	2.955
28.1	6.863
28.32	0.848
28.54	3.056
28.76	2.129
28.98	6.305
29.2	30.268
29.42	2.602
29.64	5.427
29.86	5.586
30.08	2.604
30.3	0.477
30.52	3.336
30.74	0.894
30.96	4.516
31.18	7.165
31.4	2.831
31.62	8.532
31.84	19.948
32.06	158.13
32.28	69.978
32.5	43.265
32.72	7.065
32.94	4.983
33.16	4.06
33.38	8.836
33.6	6.783
33.82	13.639
34.04	122.51
34.26	14.502
34.48	0.083
34.7	19.04
34.92	70.568
35.14	15.675
35.36	1.845
35.58	0.125
35.8	6.466
36.02	2.182
36.24	6.538
36.46	6.089
36.68	12.551
36.9	10.89
37.12	1.783
37.34	8.882
37.56	8.921
37.78	4.877
38	3.711
38.22	6.329
38.44	2.105
38.66	12.895
38.88	6.528
39.1	5.411
39.32	10.5
39.54	5.775
39.76	6.861
39.98	13.149
40.2	0.331
40.42	7.594
40.64	3.676
40.86	3.664
41.08	0.613
41.3	7.448
41.52	2.623
41.74	7.817
41.96	5.566
42.18	22.513
42.4	18.582
42.62	3.623
42.84	3.518
43.06	11.445
43.28	6.639
43.5	6.049
43.72	5.305
43.94	7.623
44.16	6.886
44.38	6.121
44.6	4.224
44.82	0.808
45.04	0.608
45.26	3.688
45.48	3.826
45.7	3.503
45.92	10.939
46.14	10.409
46.36	3.952
46.58	2.734
46.8	2.313
47.02	7.953
47.24	40.812
47.46	4.959
47.68	13.599
47.9	28.733
48.12	44.965
48.34	7.646
48.56	1.202
48.78	8.868
49	1.225
49.22	0.832
49.44	1.692
49.66	5.567
49.88	5.518
50.1	5.589
50.32	3.681
50.54	9.522
50.76	0.973
50.98	6.542
51.2	2.839
51.42	4.842
51.64	8.279
51.86	25.079
52.08	27.969
52.3	6.099
52.52	4.301
52.74	12.207
52.96	8.526
53.18	7.895
53.4	7.274
53.62	9.695
53.84	0.672
54.06	7.936
54.28	2.242
54.5	1.237
54.72	9.366
54.94	5.118
55.16	9.053
55.38	1.837
55.6	0.405
55.82	7.183
56.04	2.194
56.26	0.155
56.48	3.278
56.7	10.293
56.92	6.432
57.14	9.517
57.36	7.756
57.58	5.092
57.8	8.239
58.02	5.662
58.24	1.876
58.46	0.766
58.68	5.624
58.9	0.652
59.12	0.84
59.34	4.856
59.56	9.644
59.78	8.391
60	9.146
60.22	9.382
60.44	10.319
60.66	2.203
60.88	9.324
61.1	4.503
61.32	4.752
61.54	0.069
61.76	5.622
61.98	4.884
62.2	7.961
62.42	9.734
62.64	3.614
62.86	5.289
63.08	8.199
63.3	10.088
63.52	16.194
63.74	8.091
63.96	6.784
64.18	12.665
64.4	3.708
64.62	2.905
64.84	1.233
65.06	6.348
65.28	0.384
65.5	0.02
65.72	2.181
65.94	5.044
66.16	3.06
66.38	10.148
66.6	7.889
66.82	9.874
67.04	3.721
67.26	5.702
67.48	5.828
67.7	5.947
67.92	8.871
68.14	2.852
68.36	2.977
68.58	10.073
68.8	5.045
69.02	2.156
69.24	0.368
69.46	5.465
69.68	1.571
69.9	10.581
70.12	3.535
70.34	1.419
70.56	2.397
70.78	0.62
71	5.349
71.22	11.273
71.44	13.122
71.66	6.066
71.88	7.944
72.1	3.689
72.32	2.54
72.54	3.357
72.76	3.44
72.98	5.378
73.2	2.349
73.42	3.329
73.64	0.562
73.86	2.591
74.08	0.304
74.3	5.884
74.52	2.916
74.74	2.955
74.96	1.98
75.18	6.951
75.4	0.957
75.62	3.102
75.84	8.182
76.06	4.172
76.28	6.281
76.5	6.333
76.72	2.339
76.94	6.367
77.16	5.441
77.38	6.46
77.6	4.52
77.82	2.406
78.04	3.402
78.26	3.454
78.48	0.267
78.7	3.099
78.92	0.879
79.14	1.787
79.36	9.867
79.58	4.811
79.8	5.754
80.02	6.654
80.24	3.555
80.46	9.389
80.68	5.313
80.9	4.22
81.12	8.242
81.34	4.212
81.56	3.083
81.78	3.976
82	4.442
82.22	4.557
82.44	3.482
82.66	2.804
82.88	3.822
83.1	2.056
83.32	3.905
83.54	9.705
83.76	4.69
83.98	10.565
84.2	2.306
84.42	0.758
84.64	6.539
84.86	5.591
85.08	2.486
85.3	3.71
85.52	6.629
85.74	6.741
85.96	9.895
86.18	8.118
86.4	3.454
86.62	4.692
86.84	8.86
87.06	7.037
87.28	6.964
87.5	5.885
87.72	4.959
87.94	4.139
88.16	8.276
88.38	9.346
88.6	8.233
88.82	1.985
89.04	6.028
89.26	2.105
89.48	8.01
89.7	5.38
89.92	2.612
