Measurement: Powder, Xray Data XY Processed
Mineral: Bustamite
Rruff sample: R040014
Ideal chemistry: CaMn^2+^Si_2_O_6_
Locality: Broken Hill, New South Wales, Australia
Source: University of Arizona Mineral Museum
Description: Orange fragment
Diffraction sample description: Powder
Measured chemistry: (Ca_0.90_Mn_0.10_)_Σ=1_(Mn^2+^_0.78_Fe^2+^_0.19_Fe^3+^_0.02_Mg_0.01_)_Σ=1_(Si_1.98_Fe^3+^_0.02_)_Σ=2_O_6_
Cell parameters: a: 9.844(1) b: 10.755(1) c: 7.128(2) alpha: 99.58(2) beta: 99.76(2) gamma: 83.878(9) volume: 731.0(2) crystal system: triclinic
x	intensity
5	0
5.22	19.122
5.44	24.108
5.66	9.42
5.88	13.814
6.1	20.56
6.32	23.157
6.54	8.601
6.76	28.767
6.98	13.191
7.2	8.344
7.42	1.977
7.64	22.913
7.86	20.34
8.08	0.239
8.3	9.841
8.52	15.252
8.74	36.552
8.96	5.981
9.18	19.152
9.4	15.365
9.62	14.393
9.84	13.864
10.06	13.664
10.28	22.921
10.5	15.665
10.72	17.891
10.94	14.522
11.16	20.509
11.38	14.071
11.6	8.841
11.82	30.38
12.04	6.188
12.26	8.949
12.48	16.144
12.7	13.86
12.92	75.143
13.14	16.128
13.36	12.4
13.58	17.493
13.8	10.571
14.02	5.426
14.24	23.841
14.46	15.752
14.68	11.191
14.9	11.067
15.12	5.092
15.34	14.742
15.56	11.319
15.78	25.302
16	13.934
16.22	3.46
16.44	1.452
16.66	28.535
16.88	8.431
17.1	7.73
17.32	13.197
17.54	15.647
17.76	14.406
17.98	15.681
18.2	20.148
18.42	20.125
18.64	10.222
18.86	12.899
19.08	9.336
19.3	7.143
19.52	12.107
19.74	0.81
19.96	13.33
20.18	30.03
20.4	3.656
20.62	16.784
20.84	13.088
21.06	0.499
21.28	13.51
21.5	39.732
21.72	22.795
21.94	12.596
22.16	0.631
22.38	21.668
22.6	10.207
22.82	9.599
23.04	19.816
23.26	17.04
23.48	6.31
23.7	14.567
23.92	129.494
24.14	15.369
24.36	16.752
24.58	30.3
24.8	11.536
25.02	26.165
25.24	20.976
25.46	1.922
25.68	21.093
25.9	55.069
26.12	29.62
26.34	12.612
26.56	24.753
26.78	22.863
27	12.202
27.22	22.23
27.44	11.796
27.66	301.412
27.88	26.843
28.1	15.055
28.32	28.15
28.54	3.193
28.76	1.244
28.98	12.142
29.2	0.529
29.42	22.527
29.64	180.024
29.86	16.027
30.08	26.28
30.3	30.689
30.52	3.032
30.74	131.058
30.96	91.686
31.18	44.398
31.4	21.261
31.62	0.423
31.84	0.264
32.06	5.966
32.28	15.967
32.5	11.605
32.72	19.769
32.94	38.717
33.16	2.506
33.38	15.434
33.6	30.923
33.82	23.926
34.04	48.918
34.26	7.846
34.48	14.759
34.7	17.455
34.92	7.236
35.14	7.119
35.36	6.038
35.58	21.223
35.8	5.59
36.02	10.207
36.24	53.602
36.46	30.379
36.68	14.62
36.9	17.255
37.12	34.473
37.34	6.542
37.56	15.258
37.78	13.145
38	3.628
38.22	8.661
38.44	1.624
38.66	7.36
38.88	24.837
39.1	2.347
39.32	31.469
39.54	31.045
39.76	19.806
39.98	24.318
40.2	135.347
40.42	22.379
40.64	19.936
40.86	7.401
41.08	1.969
41.3	3.423
41.52	17.891
41.74	17.382
41.96	30.483
42.18	21.757
42.4	37.692
42.62	30.071
42.84	28.38
43.06	14.559
43.28	6.646
43.5	9.143
43.72	11.612
43.94	16.35
44.16	19.059
44.38	14.314
44.6	15.519
44.82	22.035
45.04	3.739
45.26	15.028
45.48	4.12
45.7	25.921
45.92	4.379
46.14	28.127
46.36	3.034
46.58	16.813
46.8	5.109
47.02	39.717
47.24	33.65
47.46	17.676
47.68	23.482
47.9	23.067
48.12	8.405
48.34	14.763
48.56	14.766
48.78	18.875
49	5.524
49.22	4.464
49.44	4.766
49.66	45.523
49.88	20.323
50.1	29.35
50.32	8.724
50.54	0.698
50.76	7.554
50.98	20.421
51.2	24.352
51.42	26.421
51.64	4.121
51.86	29.357
52.08	19.671
52.3	7.166
52.52	30.179
52.74	18.399
52.96	12.347
53.18	22.795
53.4	31.798
53.62	9.752
53.84	6.829
54.06	6.935
54.28	3.235
54.5	11.56
54.72	49.187
54.94	24.848
55.16	42.181
55.38	34.323
55.6	30.164
55.82	15.018
56.04	26.384
56.26	14.013
56.48	1.854
56.7	10.204
56.92	1.948
57.14	35.454
57.36	20.49
57.58	18.23
57.8	18.772
58.02	7.474
58.24	21.779
58.46	3.612
58.68	25.083
58.9	41.385
59.12	24.534
59.34	21.883
59.56	9.523
59.78	0.298
60	3.257
60.22	9.293
60.44	3.245
60.66	21.337
60.88	7.871
61.1	4.521
61.32	6.898
61.54	19.831
61.76	11.26
61.98	15.177
62.2	17.156
62.42	20.194
62.64	4.594
62.86	15.585
63.08	25.616
63.3	5.694
63.52	7.652
63.74	6.523
63.96	6.267
64.18	23.36
64.4	13.71
64.62	12.573
64.84	13.677
65.06	11.168
65.28	5.695
65.5	25.7
65.72	14.182
65.94	25.663
66.16	28.489
66.38	7.101
66.6	18.727
66.82	18.305
67.04	12.806
67.26	4.826
67.48	35.531
67.7	24.19
67.92	27.044
68.14	23.189
68.36	16.705
68.58	2.259
68.8	6.983
69.02	9.61
69.24	22.886
69.46	2.331
69.68	3.541
69.9	3.872
70.12	21.086
70.34	1.898
70.56	18.761
70.78	5.605
71	32.533
71.22	6.322
71.44	20.309
71.66	3.395
71.88	14.199
72.1	21.77
72.32	9.589
72.54	20.748
72.76	26.407
72.98	0.31
73.2	35.987
73.42	3.159
73.64	2.471
73.86	10.924
74.08	11.734
74.3	9.656
74.52	19.633
74.74	35.559
74.96	19.737
75.18	19.616
75.4	7.951
75.62	34.316
75.84	17.173
76.06	20.107
76.28	21.922
76.5	5.974
76.72	24.795
76.94	20.259
77.16	23.08
77.38	11.146
77.6	6.372
77.82	15.742
78.04	24.268
78.26	18.382
78.48	15.438
78.7	13.846
78.92	19.243
79.14	10.472
79.36	0.166
79.58	5.208
79.8	3.095
80.02	14.9
80.24	13.657
80.46	13.287
80.68	11.267
80.9	11.861
81.12	7.649
81.34	9.006
81.56	17.159
81.78	19.072
82	9.231
82.22	5.173
82.44	25.031
82.66	20.528
82.88	0.735
83.1	26.657
83.32	3.901
83.54	1.215
83.76	17.273
83.98	5.27
84.2	30.356
84.42	44.292
84.64	26.143
84.86	12.963
85.08	12.727
85.3	14.738
85.52	12.879
85.74	5.995
85.96	2.723
86.18	24.701
86.4	14.439
86.62	19.243
86.84	0.704
87.06	2.404
87.28	28
87.5	13.374
87.72	22.836
87.94	13.33
88.16	23.744
88.38	21.621
88.6	4.488
88.82	8.161
89.04	8.721
89.26	21.89
89.48	18.093
89.7	22.564
89.92	2.072
