Measurement: Powder, Xray Data XY Processed
Mineral: Calcite
Rruff sample: R050009
Ideal chemistry: CaCO_3_
Locality: Amparo mine, Rodeo, Durango, Mexico
Source: Eugene Schlepp
Description: Colorless cleavage rhomb
Diffraction sample description: Powder
Measured chemistry: Ca_1.00_CO_3_; trace amounts of Mn
Cell parameters: a: 4.9892(1) b: 4.9892(1) c: 17.0620(6) alpha: 90. beta: 90. gamma: 120. volume: 367.81(2) crystal system: hexagonal
x	intensity
5	0
5.22	17.945
5.44	6.278
5.66	2.882
5.88	1.856
6.1	19.325
6.32	14.939
6.54	15.075
6.76	16.542
6.98	14.983
7.2	2.453
7.42	0.995
7.64	4.456
7.86	5.076
8.08	3.565
8.3	7.884
8.52	6.587
8.74	4.736
8.96	3.212
9.18	0.773
9.4	11.808
9.62	5.796
9.84	7.025
10.06	8.05
10.28	4.394
10.5	2.435
10.72	4.603
10.94	15.83
11.16	10.869
11.38	2.98
11.6	2.123
11.82	4.063
12.04	4.11
12.26	2.092
12.48	7.291
12.7	4.883
12.92	2.291
13.14	8.32
13.36	6.367
13.58	4.479
13.8	3.651
14.02	6.729
14.24	1.971
14.46	4.081
14.68	5.221
14.9	6.25
15.12	1.462
15.34	3.235
15.56	1.413
15.78	5.451
16	2.735
16.22	4.732
16.44	1.868
16.66	6.046
16.88	7.188
17.1	2.36
17.32	4.434
17.54	2.412
17.76	4.419
17.98	10.54
18.2	1.349
18.42	0.446
18.64	4.527
18.86	3.571
19.08	5.599
19.3	2.876
19.52	1.985
19.74	7.024
19.96	0.135
20.18	4.144
20.4	1.022
20.62	1.009
20.84	0.053
21.06	1.998
21.28	5.975
21.5	3.772
21.72	0.4
21.94	6.14
22.16	2.023
22.38	4.884
22.6	6.041
22.82	9.051
23.04	26.225
23.26	15.235
23.48	4.462
23.7	5.649
23.92	7.003
24.14	7.265
24.36	7.391
24.58	3.505
24.8	5.748
25.02	1.638
25.24	5.644
25.46	4.443
25.68	3.362
25.9	3.216
26.12	0.064
26.34	0.821
26.56	16.882
26.78	3.135
27	3.254
27.22	1.894
27.44	1.423
27.66	1.947
27.88	3.406
28.1	2.766
28.32	2.035
28.54	11.33
28.76	7.641
28.98	9.656
29.2	46.737
29.42	594.369
29.64	118.287
29.86	11.687
30.08	16.198
30.3	2.696
30.52	3.154
30.74	2.84
30.96	3.471
31.18	5.186
31.4	7.711
31.62	8.174
31.84	7.053
32.06	9.357
32.28	1.227
32.5	7.08
32.72	3.316
32.94	4.483
33.16	6.444
33.38	1.381
33.6	0.469
33.82	0.533
34.04	4.859
34.26	3.544
34.48	9.422
34.7	1.413
34.92	0.369
35.14	3.314
35.36	2.262
35.58	8.275
35.8	11.413
36.02	112.47
36.24	21.614
36.46	6.392
36.68	7.462
36.9	1.677
37.12	7.804
37.34	1.814
37.56	4.809
37.78	2.869
38	4.778
38.22	2.483
38.44	4.272
38.66	3.999
38.88	2.792
39.1	6.98
39.32	22.843
39.54	124.887
39.76	10.834
39.98	2.989
40.2	3.112
40.42	1.152
40.64	5.488
40.86	2.761
41.08	3.938
41.3	4.816
41.52	0.397
41.74	1.157
41.96	2.845
42.18	4.642
42.4	3.229
42.62	4.023
42.84	8.915
43.06	12.832
43.28	79.69
43.5	13.639
43.72	2.029
43.94	4.232
44.16	2.469
44.38	6.885
44.6	5.049
44.82	0.324
45.04	5.596
45.26	6.833
45.48	9.655
45.7	6.251
45.92	3.586
46.14	2.548
46.36	0.713
46.58	6.76
46.8	0.43
47.02	8.655
47.24	26.689
47.46	40.798
47.68	136.953
47.9	6.396
48.12	13.498
48.34	19.012
48.56	167.169
48.78	30.389
49	6.205
49.22	0.245
49.44	4.254
49.66	10.239
49.88	3.097
50.1	5.027
50.32	10.947
50.54	7.381
50.76	6.729
50.98	5.384
51.2	5.163
51.42	1.296
51.64	3.44
51.86	6.67
52.08	5.793
52.3	3.003
52.52	2.916
52.74	3.963
52.96	5.126
53.18	4.071
53.4	1.126
53.62	4.161
53.84	0.664
54.06	2.303
54.28	7.398
54.5	1.351
54.72	9.417
54.94	6.369
55.16	4.017
55.38	0.217
55.6	5.515
55.82	4.226
56.04	5.932
56.26	0.483
56.48	7.142
56.7	10.726
56.92	4.472
57.14	4.075
57.36	17.14
57.58	44.257
57.8	9.506
58.02	3.724
58.24	9.166
58.46	5.605
58.68	2.92
58.9	2.234
59.12	0.374
59.34	5.726
59.56	1.251
59.78	0.462
60	2.328
60.22	3.022
60.44	9.819
60.66	19.418
60.88	33.194
61.1	14.35
61.32	13.56
61.54	15.34
61.76	7.417
61.98	2.541
62.2	1.668
62.42	0.955
62.64	3.218
62.86	0.552
63.08	15.628
63.3	10.458
63.52	4.322
63.74	0.921
63.96	0.822
64.18	5.929
64.4	0.799
64.62	16.694
64.84	18.441
65.06	5.208
65.28	6.138
65.5	5.364
65.72	16.466
65.94	6.737
66.16	0.984
66.38	5.462
66.6	2.595
66.82	7.951
67.04	3.233
67.26	1.469
67.48	1.702
67.7	0.264
67.92	6.791
68.14	3.844
68.36	4.85
68.58	5.863
68.8	0.694
69.02	2.607
69.24	8.446
69.46	6.348
69.68	1.328
69.9	4.287
70.12	2.308
70.34	12.149
70.56	6.271
70.78	0.156
71	3.114
71.22	1.061
71.44	0.03
71.66	1.924
71.88	7.872
72.1	0.236
72.32	5.706
72.54	2.691
72.76	6.603
72.98	15.578
73.2	10.637
73.42	2.731
73.64	4.725
73.86	2.836
74.08	5.037
74.3	5.102
74.52	0.427
74.74	4.408
74.96	0.573
75.18	3.437
75.4	1.369
75.62	2.347
75.84	1.306
76.06	1.251
76.28	6.114
76.5	8.045
76.72	4.138
76.94	2.907
77.16	9.865
77.38	9.004
77.6	0.876
77.82	1.252
78.04	2.316
78.26	4.327
78.48	5.758
78.7	2.867
78.92	2.961
79.14	0.921
79.36	2.935
79.58	3.894
79.8	2.645
80.02	4.462
80.24	0.238
80.46	0.061
80.68	0.378
80.9	3.189
81.12	1.114
81.34	5.75
81.56	18.593
81.78	11.656
82	5.774
82.22	4.848
82.44	3.806
82.66	0.171
82.88	0.861
83.1	4.893
83.32	0.967
83.54	6.963
83.76	12.972
83.98	7.887
84.2	4.849
84.42	3.802
84.64	5.88
84.86	9.024
85.08	11.135
85.3	6.329
85.52	4.511
85.74	2.595
85.96	0.215
86.18	3.025
86.4	3.34
86.62	6.336
86.84	0.461
87.06	0.559
87.28	1.69
87.5	1.754
87.72	4.859
87.94	3.901
88.16	5.052
88.38	3.112
88.6	3.108
88.82	2.067
89.04	5.165
89.26	6.105
89.48	1.204
89.7	0.2
89.92	5.159
