Measurement: Powder, Xray Data XY Processed
Mineral: Calcite
Rruff sample: R150020
Ideal chemistry: CaCO_3_
Locality: Creel, Chihuahua, Mexico
Source: Canan D'Avela
Description: Transparent colorless cleavage fragments of Iceland spar obtained through Wards
Diffraction sample description: Powder
Measured chemistry: Ca_0.993_CO_3_; trace amount of Sr
Cell parameters: a: 4.98793(9) b: 4.98793(9) c: 17.0545(4) alpha: 90 beta: 90 gamma: 120 volume: 367.46(1) crystal system: hexagonal
x	intensity
5	152
5.22	118
5.44	128
5.66	125
5.88	156
6.1	163
6.32	172
6.54	181
6.76	183
6.98	139
7.2	97
7.42	96
7.64	97
7.86	84
8.08	101
8.3	78
8.52	91
8.74	72
8.96	79
9.18	85
9.4	72
9.62	77
9.84	87
10.06	83
10.28	82
10.5	62
10.72	58
10.94	61
11.16	54
11.38	59
11.6	49
11.82	35
12.04	50
12.26	45
12.48	44
12.7	45
12.92	50
13.14	33
13.36	45
13.58	38
13.8	52
14.02	43
14.24	42
14.46	44
14.68	41
14.9	65
15.12	47
15.34	44
15.56	44
15.78	48
16	46
16.22	53
16.44	39
16.66	52
16.88	40
17.1	36
17.32	40
17.54	50
17.76	43
17.98	47
18.2	36
18.42	42
18.64	39
18.86	42
19.08	37
19.3	42
19.52	53
19.74	44
19.96	23
20.18	37
20.4	37
20.62	32
20.84	50
21.06	38
21.28	31
21.5	30
21.72	36
21.94	25
22.16	27
22.38	33
22.6	28
22.82	39
23.04	247
23.26	53
23.48	32
23.7	46
23.92	31
24.14	31
24.36	47
24.58	34
24.8	26
25.02	26
25.24	32
25.46	30
25.68	23
25.9	31
26.12	28
26.34	34
26.56	88
26.78	49
27	33
27.22	29
27.44	25
27.66	24
27.88	30
28.1	35
28.32	39
28.54	52
28.76	60
28.98	64
29.2	206
29.42	4150
29.64	257
29.86	70
30.08	42
30.3	52
30.52	36
30.74	37
30.96	47
31.18	44
31.4	87
31.62	45
31.84	43
32.06	36
32.28	33
32.5	28
32.72	31
32.94	34
33.16	30
33.38	27
33.6	35
33.82	36
34.04	30
34.26	19
34.48	30
34.7	21
34.92	31
35.14	29
35.36	27
35.58	33
35.8	49
36.02	249
36.24	44
36.46	31
36.68	20
36.9	28
37.12	25
37.34	30
37.56	31
37.78	21
38	30
38.22	30
38.44	17
38.66	26
38.88	31
39.1	43
39.32	113
39.54	250
39.76	51
39.98	29
40.2	25
40.42	19
40.64	26
40.86	15
41.08	19
41.3	19
41.52	17
41.74	20
41.96	27
42.18	30
42.4	26
42.62	38
42.84	36
43.06	99
43.28	291
43.5	46
43.72	30
43.94	23
44.16	25
44.38	35
44.6	25
44.82	24
45.04	24
45.26	19
45.48	24
45.7	23
45.92	18
46.14	20
46.36	23
46.58	32
46.8	31
47.02	77
47.24	127
47.46	350
47.68	263
47.9	56
48.12	49
48.34	89
48.56	370
48.78	78
49	37
49.22	29
49.44	22
49.66	22
49.88	19
50.1	24
50.32	26
50.54	27
50.76	23
50.98	28
51.2	21
51.42	32
51.64	13
51.86	16
52.08	25
52.3	19
52.52	10
52.74	23
52.96	25
53.18	16
53.4	30
53.62	23
53.84	16
54.06	21
54.28	25
54.5	27
54.72	19
54.94	18
55.16	23
55.38	18
55.6	16
55.82	23
56.04	12
56.26	25
56.48	63
56.7	59
56.92	27
57.14	36
57.36	167
57.58	127
57.8	25
58.02	38
58.24	45
58.46	20
58.68	19
58.9	13
59.12	18
59.34	20
59.56	22
59.78	18
60	17
60.22	20
60.44	34
60.66	162
60.88	94
61.1	53
61.32	54
61.54	62
61.76	17
61.98	19
62.2	19
62.42	21
62.64	25
62.86	20
63.08	48
63.3	32
63.52	19
63.74	20
63.96	22
64.18	17
64.4	26
64.62	119
64.84	94
65.06	26
65.28	22
65.5	32
65.72	56
65.94	21
66.16	18
66.38	18
66.6	19
66.82	15
67.04	32
67.26	16
67.48	13
67.7	22
67.92	16
68.14	20
68.36	18
68.58	21
68.8	17
69.02	13
69.24	34
69.46	28
69.68	28
69.9	16
70.12	23
70.34	32
70.56	12
70.78	20
71	15
71.22	18
71.44	16
71.66	18
71.88	16
72.1	13
72.32	18
72.54	24
72.76	29
72.98	40
73.2	29
73.42	34
73.64	32
73.86	23
74.08	17
74.3	15
74.52	11
74.74	18
74.96	22
75.18	19
75.4	16
75.62	15
75.84	16
76.06	17
76.28	43
76.5	38
76.72	22
76.94	20
77.16	78
77.38	60
77.6	20
77.82	17
78.04	24
78.26	9
78.48	14
78.7	15
78.92	18
79.14	15
79.36	13
79.58	11
79.8	9
80.02	14
80.24	14
80.46	14
80.68	9
80.9	31
81.12	18
81.34	20
81.56	91
81.78	54
82	14
82.22	13
82.44	12
82.66	11
82.88	21
83.1	18
83.32	17
83.54	20
83.76	68
83.98	46
84.2	23
84.42	19
84.64	18
84.86	57
85.08	39
85.3	27
85.52	14
85.74	14
85.96	20
86.18	18
86.4	16
86.62	22
86.84	18
87.06	20
87.28	8
87.5	17
87.72	10
87.94	14
88.16	13
88.38	16
88.6	12
88.82	18
89.04	9
89.26	18
89.48	11
89.7	13
89.92	13
