Measurement: Powder, Xray Data XY Processed
Mineral: Callaghanite
Rruff sample: R050598
Ideal chemistry: Cu^2+^_2_Mg_2_CO_3_(OH)_6_2H_2_O
Locality: Basic Refractories mine, Gabbs District, Nye County, Nevada, USA
Source: Marcus Origlieri
Description: Druse of blue pseudo-octahedral crystals
Diffraction sample description: Single crystal, powder profile is calculated
Measured chemistry: Cu_2.00_(Mg_1.97_Fe_0.03_)_Σ=2_CO_3_(OH)_6_·2H_2_O ; C and H not measured but estimated by stoichiometry
Cell parameters: a: 9.999(3) b: 11.747(4) c: 8.210(3) alpha: 90 beta: 107.385(12) gamma: 90 volume: 920.2(1.3) crystal system: monoclinic
x	intensity
5	0
5.22	0
5.44	0
5.66	0
5.88	0
6.1	0
6.32	0
6.54	0
6.76	0
6.98	0
7.2	0
7.42	0
7.64	0
7.86	0
8.08	0
8.3	0
8.52	0
8.74	0
8.96	0
9.18	0
9.4	0
9.62	0
9.84	0
10.06	0
10.28	0
10.5	0
10.72	0
10.94	0
11.16	0
11.38	0
11.6	0
11.82	0.005
12.04	1.282
12.26	0
12.48	0
12.7	0
12.92	0
13.14	0
13.36	0
13.58	0
13.8	0
14.02	0
14.24	0
14.46	53.861
14.68	0
14.9	0
15.12	0.309
15.34	0
15.56	0
15.78	0
16	0
16.22	0
16.44	0
16.66	0
16.88	0
17.1	0
17.32	0
17.54	0
17.76	0
17.98	0
18.2	0.08
18.42	0.004
18.64	16.125
18.86	0.197
19.08	0
19.3	0
19.52	0
19.74	0
19.96	0
20.18	0
20.4	0
20.62	0
20.84	0
21.06	0
21.28	0
21.5	0
21.72	0
21.94	0
22.16	0
22.38	0
22.6	0.064
22.82	0.021
23.04	30.696
23.26	0.001
23.48	0
23.7	0
23.92	0.036
24.14	13.265
24.36	0
24.58	5.83
24.8	0.002
25.02	0
25.24	0
25.46	0
25.68	0
25.9	0.897
26.12	0
26.34	0
26.56	0
26.78	0
27	0
27.22	0.001
27.44	1.093
27.66	0
27.88	0.048
28.1	43.97
28.32	0.461
28.54	0
28.76	0
28.98	0.316
29.2	0.069
29.42	0
29.64	0
29.86	0
30.08	0
30.3	0.009
30.52	2.072
30.74	0
30.96	0
31.18	0
31.4	0.65
31.62	0
31.84	0
32.06	0
32.28	0
32.5	4.443
32.72	0.013
32.94	0
33.16	0
33.38	0
33.6	19.925
33.82	0.043
34.04	0
34.26	0.487
34.48	0
34.7	0
34.92	0
35.14	0
35.36	0.009
35.58	1.991
35.8	0.071
36.02	0.194
36.24	0
36.46	0.002
36.68	0
36.9	0
37.12	0.112
37.34	1.297
37.56	0.075
37.78	6.888
38	0.012
38.22	4.655
38.44	0.704
38.66	0
38.88	0
39.1	26.803
39.32	0.35
39.54	7.309
39.76	0.004
39.98	0
40.2	2.907
40.42	0.374
40.64	0.006
40.86	2.589
41.08	0.479
41.3	0
41.52	0
41.74	0
41.96	1.824
42.18	0.19
42.4	0.943
42.62	0
42.84	0
43.06	0
43.28	0
43.5	0
43.72	0
43.94	0
44.16	0.595
44.38	0.87
44.6	0.235
44.82	0
45.04	0.517
45.26	0
45.48	0.001
45.7	0.168
45.92	1.785
46.14	1.646
46.36	1.221
46.58	0.003
46.8	0.012
47.02	2.183
47.24	2.204
47.46	4.009
47.68	0.641
47.9	1.801
48.12	1.216
48.34	0.008
48.56	0
48.78	0
49	1.483
49.22	0.481
49.44	0.078
49.66	0.065
49.88	0.001
50.1	0
50.32	6.28
50.54	1.246
50.76	3.411
50.98	1.349
51.2	0.427
51.42	0.867
51.64	0.113
51.86	0.117
52.08	0.454
52.3	2.241
52.52	0.149
52.74	0
52.96	0.035
53.18	2.375
53.4	1.351
53.62	0.958
53.84	0.003
54.06	0
54.28	0
54.5	0.07
54.72	1.266
54.94	0.014
55.16	0
55.38	0.596
55.6	2.167
55.82	1.662
56.04	0.016
56.26	0.616
56.48	0.165
56.7	0
56.92	1.228
57.14	0.335
57.36	0.038
57.58	0.034
57.8	5.039
58.02	3.777
58.24	0.405
58.46	0.477
58.68	0.203
58.9	1.01
59.12	0.205
59.34	0
59.56	0.003
59.78	0
60	1.073
60.22	1.168
60.44	1.346
60.66	0.201
60.88	0.054
61.1	0.515
61.32	2.206
61.54	0.099
61.76	0.698
61.98	2.314
62.2	0.275
62.42	1.172
62.64	0.087
62.86	0.001
63.08	0.003
63.3	1.343
63.52	0.483
63.74	0.005
63.96	0.035
64.18	0
64.4	0.117
64.62	0.95
64.84	3.632
65.06	5.066
65.28	1.817
65.5	0.156
65.72	0.115
65.94	0.728
66.16	0.451
66.38	0.159
66.6	1.684
66.82	0.461
67.04	0.191
67.26	0.053
67.48	0.004
67.7	0.903
67.92	0.755
68.14	3.707
68.36	1.103
68.58	0.607
68.8	0.13
69.02	0.251
69.24	0.088
69.46	0.085
69.68	0.037
69.9	0
70.12	2.025
70.34	1.635
70.56	0.317
70.78	0.138
71	0.187
71.22	0.28
71.44	0.054
71.66	0.008
71.88	0.357
72.1	0.143
72.32	0.08
72.54	0.029
72.76	0.001
72.98	0.014
73.2	0.059
73.42	0.063
73.64	1.021
73.86	0.619
74.08	0.002
74.3	0.415
74.52	0.487
74.74	0.136
74.96	0.47
75.18	0.3
75.4	0.254
75.62	0.429
75.84	1.097
76.06	1.348
76.28	0.433
76.5	0.032
76.72	0.014
76.94	0.031
77.16	0.087
77.38	0.123
77.6	0.045
77.82	0.002
78.04	0.541
78.26	0.303
78.48	0.145
78.7	0.104
78.92	0.744
79.14	0.804
79.36	1.126
79.58	1.006
79.8	0.419
80.02	0.057
80.24	0.002
80.46	0.242
80.68	0.171
80.9	0.008
81.12	0.002
81.34	0.113
81.56	0.155
81.78	1.301
82	0.661
82.22	0.176
82.44	0.076
82.66	0.082
82.88	0.062
83.1	0.206
83.32	0.119
83.54	0
83.76	0
83.98	0.022
84.2	0.072
84.42	0.502
84.64	0.162
84.86	0.031
85.08	0.038
85.3	0.066
85.52	0.013
85.74	0.06
85.96	0.009
86.18	0
86.4	0.097
86.62	0.04
86.84	0.266
87.06	0.448
87.28	0.612
87.5	0.351
87.72	0.16
87.94	0.404
88.16	0.056
88.38	0.802
88.6	0.265
88.82	0.133
89.04	0.172
89.26	0.488
89.48	0.489
89.7	0.109
89.92	0.282
