Measurement: Powder, Xray Data XY Processed
Mineral: Carlosturanite
Rruff sample: R060259
Ideal chemistry: (Mg,Fe^2+^,Ti^4+^)_21_(Si,Al)_12_O_28_(OH)_34_H_2_O
Locality: Val Varaita, near Sempeyre, Piedmont, Italy
Source: Michael Scott
Description: Pale green fibrous bundle
Diffraction sample description: Powder
x	intensity
5	0
5.22	5.47888
5.44	11.2841
5.66	5.87106
5.88	11.5624
6.1	11.6597
6.32	10.6936
6.54	6.54886
6.76	10.7928
6.98	2.01187
7.2	1.36708
7.42	18.8752
7.64	3.91225
7.86	10.1448
8.08	21.6182
8.3	11.6915
8.52	11.4698
8.74	15.7191
8.96	16.6571
9.18	8.01509
9.4	7.85902
9.62	15.3597
9.84	19.0951
10.06	17.3122
10.28	14.1659
10.5	6.57131
10.72	2.65061
10.94	8.11637
11.16	14.7696
11.38	2.5029
11.6	11.6802
11.82	7.63656
12.04	35.9557
12.26	65.291
12.48	33.8857
12.7	6.94822
12.92	1.7539
13.14	6.51251
13.36	10.959
13.58	1.54374
13.8	14.0853
14.02	14.6949
14.24	4.66082
14.46	0.126703
14.68	7.8455
14.9	16.9042
15.12	3.90874
15.34	13.8964
15.56	13.7925
15.78	0.657393
16	10.6018
16.22	7.41116
16.44	10.6251
16.66	6.70039
16.88	15.3459
17.1	9.46061
17.32	8.45781
17.54	25.5474
17.76	2.49157
17.98	7.2977
18.2	7.19395
18.42	24.9672
18.64	13.6091
18.86	4.90565
19.08	14.7144
19.3	9.88866
19.52	18.601
19.74	15.2804
19.96	11.9671
20.18	10.1137
20.4	10.3264
20.62	5.06329
20.84	14.8189
21.06	2.00816
21.28	18.9247
21.5	8.52756
21.72	16.3295
21.94	14.4177
22.16	6.46756
22.38	14.3034
22.6	9.90414
22.82	10.1628
23.04	11.1497
23.26	5.72987
23.48	14.2053
23.7	8.93147
23.92	17.6611
24.14	13.1415
24.36	29.6102
24.58	45.3721
24.8	28.2711
25.02	5.88258
25.24	17.0395
25.46	20.8759
25.68	16.2474
25.9	12.5484
26.12	24.8321
26.34	4.58945
26.56	18.7886
26.78	13.3754
27	8.4163
27.22	11.5839
27.44	5.80893
27.66	1.05169
27.88	5.00322
28.1	0.70266
28.32	12.89
28.54	12.7402
28.76	16.1063
28.98	4.41016
29.2	15.2906
29.42	6.83446
29.64	7.51769
29.86	8.48874
30.08	19.5337
30.3	20.638
30.52	26.8483
30.74	0.110134
30.96	10.3331
31.18	4.56052
31.4	7.79205
31.62	8.17642
31.84	4.24903
32.06	3.81554
32.28	10.4177
32.5	5.55373
32.72	0.684969
32.94	10.2597
33.16	29.5069
33.38	9.71656
33.6	11.1407
33.82	0.440712
34.04	8.45533
34.26	11.5239
34.48	12.3797
34.7	13.0945
34.92	0.687286
35.14	21.2231
35.36	11.7184
35.58	73.0802
35.8	22.2381
36.02	10.2197
36.24	8.34982
36.46	21.6745
36.68	13.2527
36.9	13.6918
37.12	10.0392
37.34	17.0679
37.56	5.52388
37.78	4.35232
38	1.58181
38.22	6.77532
38.44	2.54667
38.66	1.23617
38.88	14.6381
39.1	12.6678
39.32	0.179832
39.54	11.9574
39.76	17.7398
39.98	24.4263
40.2	10.2858
40.42	5.17859
40.64	15.0366
40.86	12.8514
41.08	8.42162
41.3	10.1281
41.52	8.80135
41.74	9.66434
41.96	20.3897
42.18	12.6735
42.4	19.4279
42.62	7.26042
42.84	13.1024
43.06	7.46209
43.28	18.1408
43.5	11.9892
43.72	9.22848
43.94	5.4767
44.16	5.90187
44.38	13.1309
44.6	14.3994
44.82	19.4147
45.04	5.44654
45.26	11.5021
45.48	10.6316
45.7	6.58522
45.92	12.637
46.14	1.42234
46.36	8.29671
46.58	15.1928
46.8	15.1798
47.02	9.24867
47.24	11.1505
47.46	23.6447
47.68	6.62908
47.9	14.6134
48.12	17.5883
48.34	5.75929
48.56	7.43077
48.78	10.0523
49	13.1291
49.22	13.0971
49.44	12.348
49.66	20.5352
49.88	25.1621
50.1	7.16955
50.32	29.4403
50.54	2.54882
50.76	6.60208
50.98	10.5108
51.2	9.47618
51.42	22.4409
51.64	10.2781
51.86	5.85578
52.08	5.41002
52.3	9.35448
52.52	9.13544
52.74	19.5202
52.96	15.4559
53.18	8.37755
53.4	8.95899
53.62	13.0681
53.84	17.0758
54.06	6.84547
54.28	3.88374
54.5	23.8354
54.72	18.8999
54.94	12.9706
55.16	7.0429
55.38	15.9598
55.6	12.245
55.82	4.88009
56.04	11.3959
56.26	10.0394
56.48	8.96801
56.7	26.6096
56.92	21.5784
57.14	30.3527
57.36	9.7716
57.58	8.55851
57.8	9.72346
58.02	23.0577
58.24	4.55745
58.46	13.9634
58.68	4.97845
58.9	13.1161
59.12	21.248
59.34	20.5695
59.56	14.807
59.78	12.6564
60	21.9615
60.22	2.9388
60.44	11.3473
60.66	14.2016
60.88	18.717
61.1	0.483639
61.32	11.2833
61.54	10.8022
61.76	8.33374
61.98	11.2159
62.2	9.95819
62.42	17.4579
62.64	33.6229
62.86	0.338322
63.08	24.9638
63.3	24.1831
63.52	19.7344
63.74	10.1836
63.96	10.4052
64.18	9.583
64.4	22.7738
64.62	17.4428
64.84	7.83791
65.06	0.92585
65.28	25.1778
65.5	8.51643
65.72	13.669
65.94	11.5657
66.16	6.58345
66.38	21.1852
66.6	6.24064
66.82	16.5176
67.04	5.11528
67.26	11.8339
67.48	3.81151
67.7	16.5542
67.92	5.25113
68.14	3.00027
68.36	19.7138
68.58	8.37505
68.8	6.49467
69.02	4.79668
69.24	6.72723
69.46	15.795
69.68	11.7818
69.9	2.80802
70.12	12.2511
70.34	17.5695
70.56	7.38925
70.78	11.7777
71	18.6846
71.22	18.0136
71.44	6.97845
71.66	14.8894
71.88	4.33378
72.1	20.4673
72.32	0.651482
72.54	7.0212
72.76	6.91521
72.98	5.69516
73.2	12.7345
73.42	7.68522
73.64	17.3623
73.86	7.65052
74.08	25.428
74.3	11.1804
74.52	10.2515
74.74	20.2958
74.96	8.35202
75.18	14.6646
75.4	5.42641
75.62	20.563
75.84	5.48095
76.06	1.42515
76.28	21.8318
76.5	13.3209
76.72	9.42988
76.94	9.36099
77.16	14.2349
77.38	8.12418
77.6	21.6572
77.82	18.2482
78.04	6.37931
78.26	11.2846
78.48	10.0892
78.7	8.57428
78.92	14.4761
79.14	2.45049
79.36	6.53997
79.58	6.7047
79.8	3.24361
80.02	2.70548
80.24	24.1622
80.46	10.9439
80.68	14.0308
80.9	20.8132
81.12	14.5207
81.34	7.35643
81.56	28.4447
81.78	9.59709
82	7.64138
82.22	12.7647
82.44	8.09964
82.66	12.0354
82.88	11.2384
83.1	3.21182
83.32	5.92603
83.54	19.5083
83.76	5.02453
83.98	8.39737
84.2	18.7839
84.42	13.7537
84.64	5.65017
84.86	20.4064
85.08	12.7325
85.3	5.78671
85.52	21.6416
85.74	6.97324
85.96	13.9433
86.18	1.33648
86.4	4.08856
86.62	12.3404
86.84	11.2428
87.06	15.0197
87.28	12.1658
87.5	13.885
87.72	2.39067
87.94	15.2203
88.16	13.7468
88.38	13.2017
88.6	25.0223
88.82	5.1883
89.04	11.8549
89.26	8.83234
89.48	14.8935
89.7	14.1106
89.92	20.6774
