Measurement: Powder, Xray Data XY Processed
Mineral: Carletonite
Rruff sample: R050255
Ideal chemistry: KNa_4_Ca_4_Si_8_O_18_(CO_3_)_4_(F,OH)H_2_O
Locality: Mont Saint-Hilaire, Rouville County, Quebec, Canada
Source: Marcus Origlieri
Description: Group of blue prismatic single crystals
Diffraction sample description: Powder
Measured chemistry: (K_0.86_Na_0.14_)_Σ=1_Na_4.00_Ca_4.00_Si_8.00_O_18_(CO_3_)_4_(F_0.51_(OH)_0.49_)_Σ=1_·H_2_O
Cell parameters: a: 13.2047(4) b: 13.2047(4) c: 16.7119(6) alpha: 90 beta: 90 gamma: 90 volume: 2914.0(0) crystal system: tetragonal
x	intensity
5	0
5.22	136.463
5.44	18.2056
5.66	0.847113
5.88	4.04761
6.1	2.1326
6.32	1.39004
6.54	10.9224
6.76	2.62044
6.98	8.008
7.2	7.29716
7.42	10.1775
7.64	2.94318
7.86	13.0861
8.08	2.97042
8.3	8.3516
8.52	17.2874
8.74	11.6465
8.96	13.8681
9.18	3.6745
9.4	6.0602
9.62	37.64
9.84	1.72137
10.06	4.0021
10.28	13.7406
10.5	73.5242
10.72	71.6159
10.94	34.8631
11.16	9.80889
11.38	7.93972
11.6	8.40838
11.82	3.2034
12.04	0.70388
12.26	6.68072
12.48	1.1059
12.7	2.51262
12.92	2.93212
13.14	3.48836
13.36	10.5654
13.58	2.88395
13.8	0.163102
14.02	1.84994
14.24	2.49673
14.46	9.81291
14.68	6.32081
14.9	6.49604
15.12	4.525
15.34	3.71859
15.56	13.5911
15.78	12.7009
16	84.793
16.22	11.7628
16.44	3.79924
16.66	8.8614
16.88	1.61733
17.1	14.7227
17.32	6.76056
17.54	2.90859
17.76	4.81112
17.98	0.854927
18.2	5.91062
18.42	156.394
18.64	12.8407
18.86	13.1977
19.08	53.3783
19.3	8.07846
19.52	0.848773
19.74	6.45658
19.96	2.13595
20.18	2.2282
20.4	6.57565
20.62	16.8953
20.84	34.4259
21.06	8.90519
21.28	1190.94
21.5	34.7614
21.72	10.4589
21.94	134.603
22.16	3.89964
22.38	8.52353
22.6	3.08478
22.82	6.53266
23.04	5.12371
23.26	6.05796
23.48	3.58824
23.7	10.9293
23.92	5.04711
24.14	3.28197
24.36	8.45658
24.58	3.82328
24.8	0.711284
25.02	5.52902
25.24	21.4826
25.46	5.30277
25.68	6.73635
25.9	1.46316
26.12	86.5557
26.34	6.70676
26.56	35.5571
26.78	131.298
27	2.04219
27.22	7.09127
27.44	2.03987
27.66	2.00502
27.88	11.0126
28.1	4.05222
28.32	16.0798
28.54	8.18108
28.76	55.5003
28.98	11.6902
29.2	144.747
29.42	11.4707
29.64	8.23255
29.86	1.80591
30.08	0.59771
30.3	63.5589
30.52	14.3517
30.74	252.105
30.96	8.62502
31.18	0.20808
31.4	0.480924
31.62	19.3932
31.84	0.269729
32.06	13.1808
32.28	104.03
32.5	43.5685
32.72	8.87749
32.94	52.0282
33.16	4.05577
33.38	1.20733
33.6	55.3188
33.82	3.61579
34.04	8.74075
34.26	7.93304
34.48	65.078
34.7	19.0429
34.92	2.78573
35.14	5.89731
35.36	24.0388
35.58	9.40618
35.8	1.56231
36.02	9.66396
36.24	3.51382
36.46	15.4617
36.68	4.38922
36.9	6.10552
37.12	7.53826
37.34	1.22837
37.56	19.353
37.78	410.339
38	6.10736
38.22	2.32915
38.44	8.01213
38.66	6.09321
38.88	17.1972
39.1	1.21337
39.32	3.20429
39.54	3.00732
39.76	2.78515
39.98	1.49429
40.2	23.5136
40.42	18.2868
40.64	9.8376
40.86	34.6157
41.08	0.52548
41.3	3.6093
41.52	4.46904
41.74	12.4121
41.96	26.3433
42.18	0.658879
42.4	2.22136
42.62	8.0362
42.84	9.7958
43.06	16.5343
43.28	36.5349
43.5	20.4861
43.72	7.43458
43.94	3.13176
44.16	4.34676
44.38	12.4492
44.6	6.60294
44.82	10.64
45.04	2.0526
45.26	2.52213
45.48	11.772
45.7	3.79101
45.92	14.4039
46.14	9.23437
46.36	5.83876
46.58	8.68503
46.8	6.59421
47.02	3.44353
47.24	0.445644
47.46	44.4221
47.68	18.0574
47.9	3.66786
48.12	21.335
48.34	1.86536
48.56	1.87788
48.78	10.184
49	25.2821
49.22	69.4531
49.44	11.8458
49.66	7.97862
49.88	5.58699
50.1	37.9817
50.32	51.3486
50.54	8.63022
50.76	2.01056
50.98	0.729502
51.2	4.15088
51.42	3.26972
51.64	4.34933
51.86	2.24295
52.08	11.0242
52.3	11.106
52.52	5.06572
52.74	10.0587
52.96	7.14484
53.18	2.1861
53.4	3.16561
53.62	4.48015
53.84	0.829494
54.06	7.87156
54.28	0.04248
54.5	0.101962
54.72	6.71386
54.94	34.6545
55.16	1.67194
55.38	0.512933
55.6	6.4872
55.82	3.62053
56.04	6.11848
56.26	11.025
56.48	8.03713
56.7	7.02081
56.92	3.51869
57.14	0.575305
57.36	64.7296
57.58	12.8409
57.8	4.95187
58.02	6.93227
58.24	0.75812
58.46	3.79757
58.68	10.0174
58.9	38.0947
59.12	1.2788
59.34	26.7784
59.56	9.98882
59.78	0.961191
60	1.04567
60.22	12.0542
60.44	11.0694
60.66	8.22596
60.88	18.5233
61.1	31.506
61.32	3.49239
61.54	7.50423
61.76	13.7467
61.98	1.56302
62.2	4.6969
62.42	5.95181
62.64	4.16624
62.86	0.204458
63.08	0.130329
63.3	0.040338
63.52	1.96116
63.74	1.2221
63.96	5.97774
64.18	13.7195
64.4	2.65138
64.62	4.78602
64.84	1.62467
65.06	4.44345
65.28	2.48906
65.5	4.53317
65.72	0.480263
65.94	6.47055
66.16	40.513
66.38	11.2781
66.6	8.33152
66.82	10.3758
67.04	6.12784
67.26	0.987557
67.48	9.88473
67.7	6.05825
67.92	34.9615
68.14	11.7137
68.36	7.92728
68.58	1.88605
68.8	5.14719
69.02	2.37062
69.24	8.41121
69.46	7.43457
69.68	0.496643
69.9	1.30913
70.12	0.312858
70.34	7.78065
70.56	13.8179
70.78	13.0546
71	8.33503
71.22	1.2876
71.44	11.2732
71.66	3.34625
71.88	4.46763
72.1	4.59845
72.32	5.6963
72.54	1.63005
72.76	2.75182
72.98	8.13644
73.2	6.50864
73.42	3.47335
73.64	28.3228
73.86	10.6165
74.08	5.72413
74.3	2.76101
74.52	6.83467
74.74	5.80806
74.96	8.90405
75.18	3.92852
75.4	7.54848
75.62	0.987806
75.84	0.911395
76.06	6.0643
76.28	10.7814
76.5	18.6557
76.72	8.55968
76.94	3.38568
77.16	1.3154
77.38	7.43352
77.6	15.4992
77.82	10.4693
78.04	4.48312
78.26	6.54538
78.48	2.57482
78.7	2.57313
78.92	6.5982
79.14	8.69364
79.36	1.63723
79.58	9.6024
79.8	0.21786
80.02	3.26246
80.24	2.21863
80.46	18.2228
80.68	11.1687
80.9	3.97077
81.12	1.05559
81.34	9.86869
81.56	0.9515
81.78	3.29963
82	9.48156
82.22	7.72256
82.44	8.59819
82.66	1.71185
82.88	1.03068
83.1	3.08801
83.32	1.87432
83.54	5.04857
83.76	6.14931
83.98	2.048
84.2	3.79721
84.42	1.64623
84.64	0.527664
84.86	7.5226
85.08	7.48722
85.3	0.262045
85.52	23.3398
85.74	10.7524
85.96	4.78953
86.18	1.76359
86.4	6.9349
86.62	10.2036
86.84	0.658778
87.06	9.80813
87.28	4.01257
87.5	9.14901
87.72	6.40313
87.94	7.27433
88.16	10.0357
88.38	5.95638
88.6	1.96931
88.82	5.81855
89.04	2.4602
89.26	6.20139
89.48	4.82052
89.7	7.53059
89.92	6.49209
