Measurement: Powder, Xray Data XY Processed
Mineral: Caryochroite
Rruff sample: R070008
Ideal chemistry: (Na,Sr)_3_(Fe^3+^,Mg)_10_Ti^4+^_2_Si_12_O_37_(H_2_O,O,OH)_17_
Locality: Umbozero mine, Alluaiv Mt., Lovozero massif, Kola Peninsula, Russia
Source: Michael Scott
Description: Dark brown massive, very fine grained
Diffraction sample description: Powder
x	intensity
5	0
5.22	24.8206
5.44	5.86258
5.66	37.6583
5.88	26.8719
6.1	18.273
6.32	34.5209
6.54	47.7938
6.76	41.2414
6.98	65.1558
7.2	83.3599
7.42	153.499
7.64	118.792
7.86	70.974
8.08	15.5023
8.3	23.6622
8.52	26.3489
8.74	34.6024
8.96	19.8877
9.18	8.99644
9.4	49.819
9.62	12.1188
9.84	10.8539
10.06	4.16645
10.28	25.8148
10.5	12.9349
10.72	43.5152
10.94	13.3608
11.16	18.5056
11.38	38.3815
11.6	9.40253
11.82	34.9645
12.04	17.5787
12.26	6.36583
12.48	20.4301
12.7	25.1288
12.92	34.3701
13.14	30.7557
13.36	22.3088
13.58	14.4041
13.8	20.3994
14.02	20.7687
14.24	36.9403
14.46	34.6845
14.68	20.7781
14.9	3.96587
15.12	16.7807
15.34	27.3859
15.56	22.3772
15.78	0.762466
16	0.257217
16.22	21.5159
16.44	12.1679
16.66	9.04419
16.88	32.0196
17.1	37.1554
17.32	12.6058
17.54	22.5675
17.76	25.3852
17.98	9.71378
18.2	1.76927
18.42	19.5072
18.64	21.2169
18.86	1.52245
19.08	38.796
19.3	42.7744
19.52	23.3087
19.74	14.8756
19.96	19.0498
20.18	47.9804
20.4	26.8006
20.62	4.01384
20.84	9.24817
21.06	18.1043
21.28	15.1914
21.5	17.4608
21.72	25.2239
21.94	18.191
22.16	24.5266
22.38	5.24301
22.6	32.2718
22.82	37.7359
23.04	18.0685
23.26	5.09734
23.48	1.95052
23.7	3.64079
23.92	5.74443
24.14	38.843
24.36	40.272
24.58	34.1343
24.8	24.4714
25.02	24.5956
25.24	19.1635
25.46	25.2797
25.68	2.37897
25.9	30.3787
26.12	28.9934
26.34	5.87946
26.56	11.2032
26.78	19.1728
27	7.55716
27.22	4.93689
27.44	34.0678
27.66	17.917
27.88	34.9489
28.1	32.2531
28.32	2.78909
28.54	21.3591
28.76	0.456055
28.98	33.5974
29.2	20.8102
29.42	29.225
29.64	2.51308
29.86	12.1193
30.08	22.8642
30.3	13.7935
30.52	9.60144
30.74	23.494
30.96	11.2434
31.18	27.7723
31.4	7.58804
31.62	18.0147
31.84	0.941727
32.06	18.8425
32.28	2.70578
32.5	10.3117
32.72	4.60637
32.94	45.569
33.16	37.2267
33.38	41.4924
33.6	22.6618
33.82	44.6903
34.04	40.6383
34.26	22.5101
34.48	21.0435
34.7	5.67088
34.92	1.22682
35.14	26.3823
35.36	16.8306
35.58	26.4402
35.8	12.0243
36.02	18.9243
36.24	15.6856
36.46	19.0207
36.68	27.7948
36.9	15.3733
37.12	27.8993
37.34	31.9288
37.56	13.4354
37.78	25.2378
38	20.7848
38.22	18.4562
38.44	19.4544
38.66	26.8005
38.88	27.3391
39.1	41.5507
39.32	42.7561
39.54	24.8141
39.76	15.8252
39.98	22.28
40.2	19.0456
40.42	9.89653
40.64	49.417
40.86	5.72144
41.08	1.11862
41.3	30.551
41.52	19.7512
41.74	0.459991
41.96	25.6166
42.18	29.252
42.4	21.328
42.62	1.16966
42.84	14.1875
43.06	8.81154
43.28	29.216
43.5	8.41319
43.72	36.6594
43.94	28.2163
44.16	23.4132
44.38	21.4421
44.6	23.6498
44.82	11.6723
45.04	4.21359
45.26	17.4435
45.48	22.1289
45.7	16.2117
45.92	12.4548
46.14	16.545
46.36	25.6234
46.58	22.3487
46.8	6.67186
47.02	21.38
47.24	22.9726
47.46	1.52539
47.68	8.86423
47.9	28.3759
48.12	26.862
48.34	0.305038
48.56	19.0101
48.78	17.4384
49	26.5352
49.22	24.804
49.44	13.2422
49.66	20.8055
49.88	12.0427
50.1	37.4835
50.32	6.67022
50.54	27.1867
50.76	25.3834
50.98	18.9991
51.2	3.8591
51.42	22.8069
51.64	9.41396
51.86	25.5595
52.08	11.7659
52.3	13.3974
52.52	7.2544
52.74	15.0463
52.96	23.0282
53.18	10.3542
53.4	37.9072
53.62	17.7246
53.84	1.87515
54.06	1.99759
54.28	6.65244
54.5	16.7988
54.72	11.8837
54.94	14.4367
55.16	37.513
55.38	7.32346
55.6	6.01543
55.82	15.0948
56.04	35.3317
56.26	15.0634
56.48	0.284966
56.7	25.6789
56.92	15.9205
57.14	13.1363
57.36	21.3366
57.58	35.297
57.8	22.6685
58.02	35.7212
58.24	8.61522
58.46	24.8675
58.68	23.2487
58.9	20.1577
59.12	12.7846
59.34	30.4602
59.56	52.2051
59.78	29.2886
60	19.6604
60.22	28.6608
60.44	8.14227
60.66	28.3769
60.88	26.928
61.1	7.13224
61.32	16.431
61.54	33.008
61.76	16.4497
61.98	2.71603
62.2	17.1757
62.42	3.14705
62.64	14.503
62.86	17.5981
63.08	16.1861
63.3	29.4879
63.52	10.4739
63.74	26.7355
63.96	20.4489
64.18	22.7931
64.4	16.4744
64.62	39.6217
64.84	6.06139
65.06	23.4669
65.28	16.3207
65.5	19.5566
65.72	22.0474
65.94	8.07946
66.16	24.6444
66.38	18.4322
66.6	1.49463
66.82	25.8008
67.04	26.839
67.26	36.5746
67.48	18.0918
67.7	19.863
67.92	8.39002
68.14	7.2374
68.36	26.5196
68.58	12.9976
68.8	7.67556
69.02	2.70038
69.24	19.5473
69.46	4.51958
69.68	37.5499
69.9	14.8824
70.12	23.3864
70.34	27.5542
70.56	8.88245
70.78	42.8875
71	2.30653
71.22	18.275
71.44	17.9973
71.66	37.6703
71.88	41.9593
72.1	24.9012
72.32	8.48434
72.54	16.0326
72.76	41.0951
72.98	19.2089
73.2	27.6965
73.42	23.0855
73.64	19.4169
73.86	7.9867
74.08	46.6191
74.3	19.9604
74.52	10.9605
74.74	28.7863
74.96	0.099625
75.18	17.4944
75.4	17.8884
75.62	19.6212
75.84	28.5678
76.06	3.71475
76.28	32.2974
76.5	30.1941
76.72	10.529
76.94	25.9468
77.16	25.7354
77.38	12.3144
77.6	26.7343
77.82	1.97474
78.04	37.7498
78.26	20.516
78.48	28.6381
78.7	16.6487
78.92	22.5368
79.14	14.307
79.36	16.2433
79.58	10.4064
79.8	7.06783
80.02	14.0942
80.24	16.3124
80.46	10.2011
80.68	31.2933
80.9	12.4264
81.12	32.4206
81.34	6.61819
81.56	18.7359
81.78	12.3626
82	30.3861
82.22	18.2151
82.44	22.6492
82.66	21.3105
82.88	19.3949
83.1	26.9201
83.32	16.6691
83.54	14.2954
83.76	11.5664
83.98	2.23138
84.2	15.6847
84.42	1.3064
84.64	10.658
84.86	34.895
85.08	15.905
85.3	19.6965
85.52	0.48362
85.74	22.3208
85.96	17.0764
86.18	2.73328
86.4	23.8199
86.62	30.0219
86.84	13.4207
87.06	23.2512
87.28	27.4653
87.5	2.58011
87.72	34.5567
87.94	14.8687
88.16	29.4017
88.38	23.0362
88.6	37.7389
88.82	24.4319
89.04	33.3559
89.26	16.4304
89.48	1.45879
89.7	10.5433
89.92	15.3618
