Measurement: Powder, Xray Data XY Processed
Mineral: Cassiterite
Rruff sample: R040072
Ideal chemistry: SnO_2_
Locality: Bolivia
Source: University of Arizona Mineral Museum
Description: Black fragment
Diffraction sample description: Powder
Measured chemistry: Sn_0.99_O_2_
Cell parameters: a: 4.7376(1) b: 4.7376(1) c: 3.1865(1) alpha: 90. beta: 90. gamma: 90. volume: 71.523(4) crystal system: tetragonal
x	intensity
5	0
5.22	8.809
5.44	12.275
5.66	13.892
5.88	15.227
6.1	6.943
6.32	13.849
6.54	8.092
6.76	3.618
6.98	4.207
7.2	2.99
7.42	3.653
7.64	6.246
7.86	3.578
8.08	8.526
8.3	6.909
8.52	7.406
8.74	6.101
8.96	7.415
9.18	5.764
9.4	4.896
9.62	5.963
9.84	1.898
10.06	8.811
10.28	9.837
10.5	1.74
10.72	5.67
10.94	2.403
11.16	7.239
11.38	2.159
11.6	8.025
11.82	6.237
12.04	0.809
12.26	3.268
12.48	4.41
12.7	4.573
12.92	5.752
13.14	8.871
13.36	3.991
13.58	6.024
13.8	1.133
14.02	5.297
14.24	4.219
14.46	0.697
14.68	8.19
14.9	2.326
15.12	1.729
15.34	7.2
15.56	0.323
15.78	8.199
16	3.207
16.22	6.127
16.44	2.061
16.66	0.014
16.88	0.084
17.1	4.909
17.32	0.908
17.54	2.905
17.76	1.778
17.98	4.781
18.2	0.083
18.42	4.908
18.64	5.914
18.86	2.983
19.08	0.997
19.3	3.001
19.52	3.838
19.74	1.033
19.96	0.967
20.18	4.034
20.4	4.965
20.62	5.762
20.84	7.97
21.06	4.951
21.28	5.925
21.5	6.048
21.72	1.017
21.94	0.959
22.16	7.858
22.38	6.779
22.6	0.242
22.82	5.597
23.04	4.61
23.26	0.404
23.48	2.355
23.7	2.198
23.92	5.827
24.14	5.758
24.36	6.712
24.58	9.206
24.8	1.5
25.02	0.613
25.24	3.783
25.46	5.602
25.68	5.409
25.9	5.442
26.12	8.551
26.34	49.795
26.56	443.264
26.78	274.652
27	41.69
27.22	12.199
27.44	12.841
27.66	10.802
27.88	2.723
28.1	5.753
28.32	6.721
28.54	4.908
28.76	1.032
28.98	0.542
29.2	1.795
29.42	12.398
29.64	3.354
29.86	3.564
30.08	4.681
30.3	1.776
30.52	16.62
30.74	2.63
30.96	6.264
31.18	4.124
31.4	5.033
31.62	7.792
31.84	0.35
32.06	3.796
32.28	8.964
32.5	6.993
32.72	0.872
32.94	4.282
33.16	16.289
33.38	8.822
33.6	31.048
33.82	199.56
34.04	417.585
34.26	31.774
34.48	21.488
34.7	2.214
34.92	7.166
35.14	1.736
35.36	1.199
35.58	2.805
35.8	3.52
36.02	4.093
36.24	3.29
36.46	1.92
36.68	5.681
36.9	7.854
37.12	12.473
37.34	4.798
37.56	8.852
37.78	25.565
38	254.427
38.22	38.221
38.44	6.435
38.66	7.787
38.88	11.313
39.1	31.991
39.32	0.158
39.54	1.639
39.76	3.563
39.98	5.341
40.2	8.167
40.42	3.742
40.64	3.044
40.86	3.43
41.08	5.713
41.3	8.882
41.52	1.707
41.74	6.719
41.96	1.677
42.18	5.475
42.4	3.311
42.62	10.236
42.84	14.199
43.06	1.353
43.28	0.921
43.5	8.155
43.72	3.32
43.94	5.372
44.16	0.497
44.38	1.488
44.6	0.493
44.82	0.392
45.04	3.736
45.26	0.348
45.48	1.584
45.7	3.644
45.92	5.61
46.14	4.538
46.36	3.541
46.58	13.508
46.8	7.563
47.02	6.565
47.24	4.477
47.46	6.411
47.68	4.607
47.9	4.703
48.12	3.602
48.34	5.526
48.56	3.571
48.78	0.631
49	4.511
49.22	6.228
49.44	4.942
49.66	2.596
49.88	7.837
50.1	3.003
50.32	3.097
50.54	0.745
50.76	3.412
50.98	6.345
51.2	11.578
51.42	22.914
51.64	108.49
51.86	453.075
52.08	131.72
52.3	27.304
52.52	16.831
52.74	3.38
52.96	2.133
53.18	2.792
53.4	5.265
53.62	2.651
53.84	4.007
54.06	5.33
54.28	1.491
54.5	12.091
54.72	44.922
54.94	124.118
55.16	9.619
55.38	7.751
55.6	2.031
55.82	0.464
56.04	2.005
56.26	0.37
56.48	0.613
56.7	1.165
56.92	3.928
57.14	1.058
57.36	3.083
57.58	8.926
57.8	29.935
58.02	51.922
58.24	12.726
58.46	0.828
58.68	5.871
58.9	0.995
59.12	5.279
59.34	3.32
59.56	2.544
59.78	4.324
60	1.05
60.22	2.784
60.44	3.398
60.66	2.04
60.88	0.673
61.1	6.328
61.32	9.979
61.54	6.524
61.76	34.422
61.98	90.43
62.2	34.615
62.42	6.833
62.64	3.096
62.86	5.342
63.08	1.544
63.3	1.481
63.52	6.204
63.74	4.843
63.96	4.403
64.18	2.843
64.4	7.956
64.62	21.962
64.84	77.436
65.06	16.782
65.28	3.133
65.5	4.894
65.72	12.08
65.94	60.683
66.16	66.241
66.38	18.813
66.6	7.562
66.82	1.616
67.04	0.494
67.26	5.341
67.48	2.051
67.7	4.8
67.92	5.496
68.14	0.909
68.36	0.049
68.58	4.161
68.8	1.303
69.02	1.5
69.24	3.219
69.46	6.003
69.68	2.863
69.9	3.709
70.12	1.405
70.34	3.016
70.56	1.742
70.78	6.64
71	5.678
71.22	16.825
71.44	25.535
71.66	13.865
71.88	5.168
72.1	9.45
72.32	0.265
72.54	0.955
72.76	2.286
72.98	2.586
73.2	4.869
73.42	3.934
73.64	1.939
73.86	2.042
74.08	0.914
74.3	5.888
74.52	3.852
74.74	5.824
74.96	2.797
75.18	0.812
75.4	0.253
75.62	1.577
75.84	7.711
76.06	0.684
76.28	3.495
76.5	1.332
76.72	1
76.94	4.774
77.16	3.478
77.38	3.118
77.6	1.628
77.82	0.343
78.04	2.077
78.26	1.622
78.48	9.441
78.7	59.455
78.92	39.55
79.14	20.46
79.36	7.586
79.58	7.877
79.8	3.003
80.02	3.128
80.24	2.252
80.46	0.385
80.68	1.595
80.9	10.668
81.12	13.729
81.34	14.728
81.56	11.854
81.78	2.014
82	8.019
82.22	5.052
82.44	0.076
82.66	3.112
82.88	0.139
83.1	1.074
83.32	2.119
83.54	11.018
83.76	71.268
83.98	31.27
84.2	14.218
84.42	2.413
84.64	6.54
84.86	3.636
85.08	4.715
85.3	3.882
85.52	1.954
85.74	3.994
85.96	2.935
86.18	0.599
86.4	3.403
86.62	4.235
86.84	3.057
87.06	10.015
87.28	19.145
87.5	14.22
87.72	2.513
87.94	0.824
88.16	7.989
88.38	3.245
88.6	4.395
88.82	3.616
89.04	0.336
89.26	2.536
89.48	7.254
89.7	17.686
89.92	15.381
