Measurement: Powder, Xray Data XY Processed
Mineral: Cassiterite
Rruff sample: R060563
Ideal chemistry: SnO_2_
Locality: unknown
Source: Gemological Institute of America
Description: Dark brown fragment
Diffraction sample description: Powder
Measured chemistry: Sn_1.00_O_2_
Cell parameters: a: 4.7385(1) b: 4.7385(1) c: 3.1869(1) alpha: 90. beta: 90. gamma: 90. volume: 71.558(3) crystal system: tetragonal
x	intensity
5	0
5.22	3.97162
5.44	8.84217
5.66	12.3762
5.88	6.03989
6.1	7.60179
6.32	4.95845
6.54	0.603242
6.76	7.87726
6.98	1.35033
7.2	2.771
7.42	3.2474
7.64	5.70529
7.86	7.97527
8.08	3.14901
8.3	2.3285
8.52	2.63552
8.74	2.87977
8.96	3.0201
9.18	0.171208
9.4	5.37142
9.62	0.65473
9.84	1.26433
10.06	3.15693
10.28	1.0992
10.5	3.04227
10.72	0.920788
10.94	0.709723
11.16	8.61664
11.38	1.61146
11.6	4.54286
11.82	4.64952
12.04	0.732079
12.26	5.82957
12.48	0.897022
12.7	1.98977
12.92	3.19333
13.14	0.684734
13.36	1.39456
13.58	0.491777
13.8	2.57214
14.02	5.6476
14.24	3.56409
14.46	0.577148
14.68	1.63926
14.9	4.73378
15.12	3.79475
15.34	1.69721
15.56	4.65703
15.78	1.68202
16	1.64237
16.22	0.570211
16.44	2.44389
16.66	4.4396
16.88	2.38822
17.1	4.33542
17.32	1.17729
17.54	8.08357
17.76	1.08418
17.98	1.06936
18.2	4.02882
18.42	2.08052
18.64	1.23297
18.86	6.29806
19.08	2.31072
19.3	5.32873
19.52	2.30356
19.74	0.326096
19.96	1.27372
20.18	1.26234
20.4	7.39415
20.62	0.385653
20.84	1.33258
21.06	0.192644
21.28	1.19623
21.5	6.20435
21.72	4.27795
21.94	3.27279
22.16	2.32244
22.38	4.51868
22.6	1.53549
22.82	3.36248
23.04	0.361099
23.26	2.43128
23.48	6.47701
23.7	2.44206
23.92	1.3895
24.14	3.37297
24.36	0.768832
24.58	4.1216
24.8	0.712624
25.02	1.45336
25.24	0.825147
25.46	0.883653
25.68	6.45932
25.9	2.19063
26.12	8.883
26.34	5.69874
26.56	66.4526
26.78	88.5889
27	13.5749
27.22	0.730195
27.44	0.974138
27.66	3.24861
27.88	0.463478
28.1	1.85508
28.32	0.122386
28.54	2.50327
28.76	1.80674
28.98	3.98342
29.2	1.00735
29.42	3.06223
29.64	0.881586
29.86	1.17238
30.08	4.15479
30.3	5.18556
30.52	3.16478
30.74	0.233405
30.96	1.18287
31.18	1.01897
31.4	3.97363
31.62	0.154411
31.84	4.09387
32.06	3.94216
32.28	1.71684
32.5	2.53057
32.72	0.268426
32.94	4.03061
33.16	1.74473
33.38	0.458166
33.6	9.33246
33.82	42.1763
34.04	198.965
34.26	10.0852
34.48	1.33529
34.7	2.47029
34.92	0.217977
35.14	1.97408
35.36	4.29653
35.58	1.53331
35.8	0.694809
36.02	1.86566
36.24	4.94245
36.46	6.10189
36.68	2.91533
36.9	1.67687
37.12	4.56236
37.34	1.29965
37.56	2.23183
37.78	7.01437
38	99.891
38.22	9.8726
38.44	3.79912
38.66	4.79326
38.88	4.02471
39.1	13.2121
39.32	6.41239
39.54	0.571494
39.76	0.832399
39.98	0.015253
40.2	1.12539
40.42	0.753052
40.64	5.40312
40.86	1.43663
41.08	1.47735
41.3	1.40633
41.52	2.36523
41.74	0.322222
41.96	4.40554
42.18	0.692704
42.4	0.294167
42.62	1.33408
42.84	3.38004
43.06	1.34144
43.28	2.34662
43.5	0.688806
43.72	1.3553
43.94	2.43805
44.16	1.48639
44.38	0.482895
44.6	3.50542
44.82	4.52075
45.04	1.53025
45.26	0.560674
45.48	3.49902
45.7	0.558206
45.92	4.60888
46.14	3.56361
46.36	0.551743
46.58	1.55788
46.8	1.57058
47.02	2.62512
47.24	1.73793
47.46	1.7498
47.68	1.73205
47.9	0.203108
48.12	4.75316
48.34	0.728946
48.56	1.78043
48.78	1.65838
49	4.56964
49.22	5.65588
49.44	0.602547
49.66	3.34661
49.88	2.18277
50.1	4.01165
50.32	0.265794
50.54	1.47364
50.76	2.20623
50.98	1.90378
51.2	5.73081
51.42	2.57191
51.64	26.4541
51.86	244.369
52.08	40.388
52.3	5.64547
52.52	3.63813
52.74	6.81373
52.96	2.88484
53.18	8.1912
53.4	3.27613
53.62	6.33247
53.84	0.753822
54.06	2.15814
54.28	0.865039
54.5	2.28062
54.72	16.0332
54.94	38.2228
55.16	12.2216
55.38	2.37757
55.6	2.29571
55.82	4.49249
56.04	4.68126
56.26	0.779811
56.48	1.86548
56.7	0.059641
56.92	4.90333
57.14	0.058054
57.36	2.91074
57.58	1.92273
57.8	8.99115
58.02	16.079
58.24	6.09758
58.46	4.14036
58.68	2.29048
58.9	2.41934
59.12	0.544673
59.34	2.56984
59.56	1.73382
59.78	0.273804
60	4.70869
60.22	2.53112
60.44	0.360124
60.66	2.15345
60.88	3.9312
61.1	0.311255
61.32	4.48409
61.54	1.29376
61.76	10.2625
61.98	45.1568
62.2	9.24893
62.42	9.35374
62.64	4.52299
62.86	2.67507
63.08	3.6511
63.3	0.25872
63.52	1.64921
63.74	1.52045
63.96	3.35188
64.18	4.15653
64.4	3.89229
64.62	9.50708
64.84	28.1643
65.06	9.88404
65.28	1.69356
65.5	0.271164
65.72	8.94601
65.94	20.1631
66.16	34.5959
66.38	12.85
66.6	5.18072
66.82	0.586463
67.04	0.233825
67.26	0.085851
67.48	2.31201
67.7	2.51276
67.92	3.47297
68.14	1.40111
68.36	1.3834
68.58	2.1774
68.8	3.26673
69.02	2.15552
69.24	0.185127
69.46	3.30348
69.68	3.25767
69.9	1.30912
70.12	1.2893
70.34	0.665125
70.56	2.36748
70.78	1.38382
71	3.43815
71.22	7.58115
71.44	17.6346
71.66	5.5607
71.88	1.48808
72.1	1.49831
72.32	0.563354
72.54	0.493271
72.76	0.545427
72.98	1.5794
73.2	1.59659
73.42	2.62956
73.64	0.515184
73.86	2.49345
74.08	1.56948
74.3	2.59933
74.52	3.60911
74.74	3.66954
74.96	0.652308
75.18	0.70348
75.4	6.71329
75.62	0.249391
75.84	0.755766
76.06	1.69847
76.28	4.70735
76.5	1.64363
76.72	1.73815
76.94	1.64482
77.16	5.58455
77.38	1.43328
77.6	0.692362
77.82	0.202159
78.04	2.06337
78.26	4.96314
78.48	2.89935
78.7	27.962
78.92	21.9185
79.14	5.87213
79.36	3.93905
79.58	1.95864
79.8	0.051827
80.02	2.08655
80.24	2.11179
80.46	0.856063
80.68	1.22581
80.9	2.31343
81.12	7.27266
81.34	10.1024
81.56	4.11962
81.78	1.06348
82	4.07283
82.22	2.00368
82.44	1.95097
82.66	2.90773
82.88	2.87229
83.1	3.78651
83.32	0.667999
83.54	8.61426
83.76	33.6086
83.98	8.71991
84.2	2.78709
84.42	1.79051
84.64	3.90718
84.86	3.01617
85.08	2.12394
85.3	1.33468
85.52	1.39996
85.74	5.41451
85.96	4.4146
86.18	2.42846
86.4	2.32816
86.62	0.286886
86.84	4.28456
87.06	3.26453
87.28	26.266
87.5	8.31689
87.72	4.40691
87.94	2.47396
88.16	1.53137
88.38	1.70456
88.6	1.39552
88.82	0.337522
89.04	3.5389
89.26	0.099489
89.48	1.23258
89.7	5.44497
89.92	9.23587
