Measurement: Powder, Xray Data XY Processed
Mineral: Cavansite
Rruff sample: R050400
Ideal chemistry: CaV^4+^OSi_4_O_10_4H_2_O
Locality: Poona, India
Source: Eugene Schlepp
Description: Spray of blue crystals
Diffraction sample description: Powder
Measured chemistry: (Ca_0.99_Mg_0.01_)_Σ=1_(V^4+^_1.00_O)Si_4.00_O_10_·4H_2_O
Cell parameters: a: 9.7876(4) b: 13.6606(5) c: 9.6342(6) alpha: 90. beta: 90. gamma: 90. volume: 1288.15(7) crystal system: orthorhombic
x	intensity
5	0
5.22	10.7216
5.44	2.31832
5.66	6.86952
5.88	11.5228
6.1	7.94278
6.32	12.5578
6.54	18.1274
6.76	8.75642
6.98	6.44453
7.2	1.56639
7.42	2.28618
7.64	1.47324
7.86	9.84772
8.08	2.78686
8.3	7.59992
8.52	6.01382
8.74	8.28407
8.96	1.50788
9.18	3.81998
9.4	8.30806
9.62	11.7825
9.84	47.5832
10.06	33.4102
10.28	0.137422
10.5	6.68583
10.72	13.2177
10.94	31.3155
11.16	1068.61
11.38	14.595
11.6	1.39909
11.82	2.15585
12.04	7.49611
12.26	2.79108
12.48	6.08876
12.7	7.52785
12.92	503.562
13.14	14.7558
13.36	9.68843
13.58	9.61647
13.8	0.807513
14.02	7.14462
14.24	5.41279
14.46	254.421
14.68	3.68235
14.9	5.13113
15.12	5.49403
15.34	10.7386
15.56	2.98008
15.78	4.24694
16	2.56962
16.22	6.70588
16.44	4.70074
16.66	13.1339
16.88	2.25379
17.1	3.16511
17.32	3.96366
17.54	2.76031
17.76	1.18115
17.98	3.44888
18.2	7.48196
18.42	10.3987
18.64	2.43976
18.86	11.6538
19.08	4.28428
19.3	4.22006
19.52	25.0922
19.74	3.09982
19.96	10.5621
20.18	3.16042
20.4	22.8291
20.62	21.7421
20.84	3.71728
21.06	4.87
21.28	12.5727
21.5	11.4812
21.72	2.53725
21.94	5.63308
22.16	4.76912
22.38	63.0959
22.6	114.237
22.82	1.59862
23.04	6.39184
23.26	4.41015
23.48	12.4375
23.7	5.34458
23.92	1.61781
24.14	6.51936
24.36	30.3963
24.58	3.24344
24.8	3.83777
25.02	8.7964
25.24	13.4632
25.46	8.34611
25.68	2.11728
25.9	15.9101
26.12	894.784
26.34	32.7959
26.56	13.707
26.78	16.8447
27	4.44294
27.22	0.809882
27.44	5.99027
27.66	2.17944
27.88	3.42277
28.1	112.14
28.32	77.8332
28.54	37.6127
28.76	2.698
28.98	41.5814
29.2	196.882
29.42	14.6514
29.64	4.31667
29.86	4.8627
30.08	3.48019
30.3	4.1062
30.52	6.47569
30.74	1.72669
30.96	2.77244
31.18	7.71654
31.4	4.04491
31.62	6.83067
31.84	30.3846
32.06	22.027
32.28	0.721389
32.5	9.60357
32.72	18.3436
32.94	4.31314
33.16	52.351
33.38	13.5915
33.6	2.93241
33.82	45.3555
34.04	63.4682
34.26	7.51273
34.48	5.93359
34.7	4.98031
34.92	7.04758
35.14	2.32406
35.36	8.41325
35.58	5.35589
35.8	13.368
36.02	17.0149
36.24	7.77116
36.46	8.25214
36.68	10.3578
36.9	8.16235
37.12	2.25942
37.34	4.35343
37.56	1.38878
37.78	5.28729
38	9.17659
38.22	4.07762
38.44	2.24261
38.66	7.50239
38.88	32.2347
39.1	9.34102
39.32	4.28003
39.54	20.4233
39.76	9.53312
39.98	2.46116
40.2	2.59369
40.42	5.07042
40.64	5.12451
40.86	3.30391
41.08	3.18605
41.3	1.33779
41.52	3.08942
41.74	6.83313
41.96	4.43585
42.18	1.93034
42.4	0.369745
42.62	5.17912
42.84	27.6292
43.06	3.41642
43.28	40.1066
43.5	4.30643
43.72	13.1276
43.94	75.2076
44.16	7.59664
44.38	3.08948
44.6	2.27998
44.82	2.71113
45.04	0.818841
45.26	2.89675
45.48	5.37694
45.7	18.712
45.92	0.919124
46.14	9.98258
46.36	0.839671
46.58	3.67953
46.8	6.26903
47.02	7.1262
47.24	18.8567
47.46	7.70298
47.68	9.08035
47.9	23.0071
48.12	15.167
48.34	4.27478
48.56	0.309935
48.78	7.3857
49	4.35247
49.22	0.494785
49.44	1.38768
49.66	5.27783
49.88	13.2294
50.1	14.202
50.32	8.2165
50.54	3.84022
50.76	13.4972
50.98	4.8114
51.2	8.79579
51.42	17.8398
51.64	5.83295
51.86	6.95172
52.08	4.77366
52.3	8.05009
52.52	7.17808
52.74	6.31625
52.96	5.45061
53.18	3.47205
53.4	4.62173
53.62	36.3099
53.84	23.3419
54.06	17.4005
54.28	0.689108
54.5	1.9161
54.72	4.76959
54.94	3.6278
55.16	0.293602
55.38	5.24798
55.6	12.0525
55.82	7.35724
56.04	10.8568
56.26	3.75261
56.48	3.92987
56.7	8.84811
56.92	0.71001
57.14	15.6176
57.36	17.4791
57.58	1.4452
57.8	4.83454
58.02	0.862252
58.24	31.2754
58.46	43.8474
58.68	7.51173
58.9	9.58138
59.12	0.211464
59.34	3.67511
59.56	4.9096
59.78	4.98728
60	5.94399
60.22	4.03336
60.44	8.63222
60.66	10.3407
60.88	2.6897
61.1	12.0395
61.32	1.59796
61.54	5.92361
61.76	5.51823
61.98	6.82084
62.2	1.02195
62.42	6.23379
62.64	3.33314
62.86	5.90149
63.08	5.36516
63.3	3.60188
63.52	4.77226
63.74	4.99028
63.96	9.2249
64.18	11.5236
64.4	5.15368
64.62	7.33172
64.84	8.48029
65.06	13.1962
65.28	5.13119
65.5	5.9309
65.72	5.29192
65.94	5.67611
66.16	3.82957
66.38	8.6417
66.6	1.32126
66.82	10.1889
67.04	8.55915
67.26	11.3188
67.48	11.1303
67.7	9.93453
67.92	11.8791
68.14	305.778
68.36	51.0029
68.58	18.0187
68.8	8.15827
69.02	5.32416
69.24	9.47804
69.46	1.63256
69.68	4.19115
69.9	5.36869
70.12	9.46819
70.34	6.25624
70.56	4.19937
70.78	2.19064
71	2.84645
71.22	13.9504
71.44	13.0102
71.66	4.09988
71.88	3.46945
72.1	5.48693
72.32	0.748451
72.54	6.9402
72.76	8.0084
72.98	3.18606
73.2	2.16031
73.42	7.05516
73.64	12.2426
73.86	9.23598
74.08	5.22737
74.3	5.93479
74.52	3.45831
74.74	4.80961
74.96	5.82463
75.18	0.165971
75.4	6.7896
75.62	0.012135
75.84	4.40962
76.06	3.27796
76.28	1.35591
76.5	7.61564
76.72	2.70272
76.94	5.69051
77.16	7.64843
77.38	5.65887
77.6	1.7733
77.82	3.70948
78.04	5.57784
78.26	6.37738
78.48	6.33543
78.7	7.46628
78.92	10.18
79.14	9.26228
79.36	7.95012
79.58	7.65473
79.8	6.5621
80.02	13.2202
80.24	8.15439
80.46	2.02448
80.68	9.08644
80.9	9.98776
81.12	4.01621
81.34	4.54096
81.56	12.4674
81.78	6.72697
82	2.96007
82.22	2.25875
82.44	0.453878
82.66	1.71469
82.88	8.00293
83.1	4.22387
83.32	8.41552
83.54	5.59261
83.76	2.23941
83.98	0.296777
84.2	7.25371
84.42	3.43315
84.64	7.33748
84.86	3.37755
85.08	4.30141
85.3	6.28919
85.52	0.001135
85.74	0.032382
85.96	11.8909
86.18	4.03774
86.4	7.18998
86.62	8.40272
86.84	8.17901
87.06	5.13936
87.28	5.99302
87.5	0.013464
87.72	0.919834
87.94	2.8948
88.16	3.74578
88.38	7.95008
88.6	4.93979
88.82	6.05338
89.04	0.07112
89.26	0.237494
89.48	10.7056
89.7	6.68178
89.92	0.384998
