Measurement: Powder, Xray Data XY Processed
Mineral: Celestine
Rruff sample: R040007
Ideal chemistry: SrS^6+^O_4_
Locality: Coahuila, Mexico
Source: University of Arizona Mineral Museum
Description: Blue tabular crystals
Diffraction sample description: Powder
Measured chemistry: (Sr_0.95_Ba_0.04_Ca_0.01_)_Σ=1_S_1.00_O_4_; = Light bands. (Sr_0.99_Ba_0.01_)_Σ=1_S_1.00_O_4_; trace amounts of Ca = Dark bands
Cell parameters: a: 6.8693(1) b: 8.3583(3) c: 5.3510(1) alpha: 90. beta: 90. gamma: 90. volume: 307.23(1) crystal system: orthorhombic
x	intensity
5	0
5.22	13.901
5.44	13.069
5.66	9.47
5.88	16.094
6.1	15.707
6.32	5.112
6.54	0.572
6.76	11.138
6.98	0.051
7.2	7.594
7.42	6.46
7.64	10.097
7.86	7.831
8.08	3.468
8.3	3.831
8.52	9.084
8.74	2.813
8.96	2.913
9.18	1.151
9.4	6.204
9.62	3.244
9.84	12.355
10.06	2.499
10.28	11.563
10.5	5.51
10.72	0.633
10.94	12.133
11.16	5.254
11.38	8.53
11.6	0.578
11.82	6.758
12.04	7.895
12.26	11.098
12.48	2.912
12.7	9.904
12.92	2.196
13.14	4.386
13.36	3.171
13.58	12.356
13.8	9.297
14.02	3.326
14.24	10.278
14.46	5.969
14.68	8.164
14.9	9.113
15.12	10.338
15.34	7.998
15.56	6.698
15.78	3.486
16	5.452
16.22	8.262
16.44	10.124
16.66	5.97
16.88	4.027
17.1	9.986
17.32	12.81
17.54	5.671
17.76	2.658
17.98	1.594
18.2	9.5
18.42	4.347
18.64	7.53
18.86	4.476
19.08	8.408
19.3	2.048
19.52	0.231
19.74	2.735
19.96	2.36
20.18	13.171
20.4	9.082
20.62	4.903
20.84	6.974
21.06	65.991
21.28	33.097
21.5	7.686
21.72	8.643
21.94	5.976
22.16	8.816
22.38	6.757
22.6	5.674
22.82	6.504
23.04	2.752
23.26	18.726
23.48	50.89
23.7	158.032
23.92	23.018
24.14	5.173
24.36	0.529
24.58	1.851
24.8	3.474
25.02	5.64
25.24	8.475
25.46	4.993
25.68	2.094
25.9	108.185
26.12	34.5
26.34	7.423
26.56	4.047
26.78	15.278
27	199.67
27.22	243.481
27.44	21.085
27.66	10.669
27.88	23.818
28.1	415.442
28.32	42.121
28.54	9.875
28.76	0.376
28.98	6.256
29.2	7.751
29.42	17.276
29.64	19.771
29.86	54.166
30.08	524.66
30.3	121.668
30.52	31.565
30.74	8.833
30.96	5.998
31.18	1.235
31.4	1.336
31.62	3.249
31.84	8.649
32.06	9.851
32.28	6.544
32.5	27.752
32.72	161.617
32.94	155.568
33.16	29.75
33.38	66.269
33.6	208.453
33.82	26.053
34.04	7.156
34.26	6.515
34.48	0.901
34.7	16.594
34.92	14.949
35.14	4.945
35.36	6.186
35.58	8.221
35.8	3.439
36.02	5.779
36.24	4.77
36.46	5.682
36.68	4.388
36.9	2.276
37.12	4.222
37.34	6.933
37.56	16.319
37.78	51.889
38	41.031
38.22	12.722
38.44	8.007
38.66	7.894
38.88	1.793
39.1	0.262
39.32	2.336
39.54	8.405
39.76	17.819
39.98	65.288
40.2	32.611
40.42	3.555
40.64	12.223
40.86	33.465
41.08	16.099
41.3	5.717
41.52	4.173
41.74	35.133
41.96	35.58
42.18	119.576
42.4	46.639
42.62	8.516
42.84	8.049
43.06	2.167
43.28	8.417
43.5	4.865
43.72	13.374
43.94	11.961
44.16	147.518
44.38	279.668
44.6	95.491
44.82	39.365
45.04	39.588
45.26	208.792
45.48	147.824
45.7	22.254
45.92	0.024
46.14	4.932
46.36	5.714
46.58	40.791
46.8	42.619
47.02	11.397
47.24	9.321
47.46	10.007
47.68	1.515
47.9	9.214
48.12	5.702
48.34	5.165
48.56	9.588
48.78	9.473
49	29.111
49.22	10.233
49.44	8.381
49.66	5.513
49.88	5.937
50.1	11.994
50.32	3.077
50.54	9.146
50.76	7.016
50.98	2.542
51.2	12.456
51.42	21.908
51.64	76.798
51.86	47.292
52.08	8.897
52.3	5.166
52.52	5.956
52.74	0.133
52.96	19.689
53.18	10.408
53.4	11.223
53.62	2.786
53.84	0.989
54.06	8.172
54.28	7.423
54.5	33.119
54.72	49.4
54.94	9.05
55.16	1.973
55.38	3.84
55.6	2.829
55.82	7.876
56.04	27.818
56.26	13.503
56.48	1.462
56.7	1.23
56.92	5.262
57.14	5.016
57.36	31.098
57.58	113.861
57.8	39.752
58.02	21.269
58.24	11.222
58.46	8.459
58.68	1.092
58.9	5.255
59.12	7.492
59.34	28.901
59.56	34.493
59.78	16.586
60	9.17
60.22	6.737
60.44	0.073
60.66	4.386
60.88	0.59
61.1	7.292
61.32	17.331
61.54	0.614
61.76	19.172
61.98	2.729
62.2	5.55
62.42	5.394
62.64	13.268
62.86	47.782
63.08	46.404
63.3	21.88
63.52	8.169
63.74	1.846
63.96	6.821
64.18	12.821
64.4	20.699
64.62	14.689
64.84	11.63
65.06	1.855
65.28	12.969
65.5	31.237
65.72	8.87
65.94	1.204
66.16	7.927
66.38	5.787
66.6	8.806
66.82	4.172
67.04	5.667
67.26	14.473
67.48	30.318
67.7	22.403
67.92	18.46
68.14	18.182
68.36	3.482
68.58	9.936
68.8	0.687
69.02	3.58
69.24	18.579
69.46	16.74
69.68	12.935
69.9	18.998
70.12	5.331
70.34	14.252
70.56	17.66
70.78	23.401
71	8.803
71.22	7.396
71.44	16.124
71.66	8.492
71.88	3.372
72.1	27.987
72.32	18.962
72.54	15.92
72.76	5.765
72.98	4.577
73.2	3.115
73.42	7.453
73.64	14.674
73.86	17.643
74.08	11.229
74.3	5.36
74.52	6.645
74.74	10.576
74.96	18.427
75.18	16.65
75.4	4.778
75.62	11.977
75.84	22.238
76.06	11.249
76.28	6.441
76.5	2.627
76.72	3.875
76.94	2.011
77.16	19.08
77.38	8.74
77.6	17.833
77.82	12.049
78.04	11.628
78.26	5.43
78.48	6.497
78.7	1.494
78.92	5.494
79.14	5.647
79.36	14.764
79.58	25.849
79.8	16.581
80.02	13.794
80.24	4.814
80.46	0.473
80.68	0.334
80.9	12.862
81.12	5.865
81.34	6.562
81.56	0.352
81.78	0.843
82	0.871
82.22	8.451
82.44	8.312
82.66	8.423
82.88	5.158
83.1	10.135
83.32	3.873
83.54	0.967
83.76	5.723
83.98	3.586
84.2	13.563
84.42	18.847
84.64	12.385
84.86	12.031
85.08	2.243
85.3	9.649
85.52	2.646
85.74	7.531
85.96	4.686
86.18	0.056
86.4	7.933
86.62	2.735
86.84	3.353
87.06	2.248
87.28	5.345
87.5	10.512
87.72	29.825
87.94	25.83
88.16	14.046
88.38	18.134
88.6	7.082
88.82	3.76
89.04	18.64
89.26	12.106
89.48	9.816
89.7	9.435
89.92	11.413
