Measurement: Powder, Xray Data XY Processed
Mineral: Celestine
Rruff sample: R050008
Ideal chemistry: SrS^6+^O_4_
Locality: Scofield Quarry, Maybee, Monroe County, Michigan, USA
Source: Eugene Schlepp
Description: Pale blue tabular crystals
Diffraction sample description: Powder
Measured chemistry: Sr_1.00_S_1.00_O_4_
Cell parameters: a: 6.8667(7) b: 8.3613(7) c: 5.3497(3) alpha: 90. beta: 90. gamma: 90. volume: 307.15(3) crystal system: orthorhombic
x	intensity
5	0
5.22	10.086
5.44	5.696
5.66	0.313
5.88	9.101
6.1	9.231
6.32	5.702
6.54	11.232
6.76	11.379
6.98	8.829
7.2	5.321
7.42	3.953
7.64	1.301
7.86	7.531
8.08	0.465
8.3	6.604
8.52	1.317
8.74	11.49
8.96	9.38
9.18	6.237
9.4	4.425
9.62	2.185
9.84	1.143
10.06	8.408
10.28	8.535
10.5	1.884
10.72	0.216
10.94	2.564
11.16	8.665
11.38	4.697
11.6	0.032
11.82	3.901
12.04	5.133
12.26	2.102
12.48	5.025
12.7	3.962
12.92	0.948
13.14	4.869
13.36	0.877
13.58	8.825
13.8	10.969
14.02	1.265
14.24	7.646
14.46	2.406
14.68	7.281
14.9	0.079
15.12	3.081
15.34	5.93
15.56	4.045
15.78	6.92
16	1.942
16.22	10.815
16.44	3.127
16.66	1.227
16.88	7.474
17.1	5.59
17.32	2.822
17.54	3.889
17.76	4.204
17.98	5.094
18.2	7.141
18.42	5.161
18.64	4.111
18.86	4.895
19.08	11.039
19.3	7.734
19.52	5.542
19.74	0.113
19.96	7.898
20.18	1.381
20.4	1.122
20.62	4.942
20.84	8.767
21.06	56.903
21.28	32.059
21.5	14.78
21.72	2.822
21.94	4.936
22.16	0.138
22.38	0.731
22.6	5.576
22.82	9.434
23.04	15.474
23.26	15.303
23.48	42.771
23.7	128.526
23.92	9.505
24.14	8.553
24.36	7.28
24.58	2.032
24.8	0.512
25.02	7.841
25.24	5.495
25.46	3.81
25.68	7.776
25.9	82.482
26.12	42.266
26.34	7.909
26.56	1.481
26.78	33.511
27	173.788
27.22	193.48
27.44	14.547
27.66	1.455
27.88	18.35
28.1	322.535
28.32	38.484
28.54	11.265
28.76	8.117
28.98	3.008
29.2	1.831
29.42	5.542
29.64	17.432
29.86	30.188
30.08	373.346
30.3	95.629
30.52	31.655
30.74	13.092
30.96	8.073
31.18	0.999
31.4	7.472
31.62	1.871
31.84	4.21
32.06	9.258
32.28	7.131
32.5	16.578
32.72	143.541
32.94	131.173
33.16	18.984
33.38	64.019
33.6	154
33.82	22.469
34.04	3.807
34.26	13.185
34.48	5.197
34.7	19.33
34.92	9.404
35.14	2.547
35.36	8.399
35.58	5.825
35.8	3.601
36.02	5.074
36.24	7.43
36.46	7.96
36.68	4.557
36.9	2.513
37.12	5.393
37.34	15.249
37.56	17.471
37.78	46.365
38	33.457
38.22	11.752
38.44	5.015
38.66	7.903
38.88	1.291
39.1	3.536
39.32	5.653
39.54	2.012
39.76	12.444
39.98	43.686
40.2	19.873
40.42	6.684
40.64	8.552
40.86	19.981
41.08	4.631
41.3	10.379
41.52	2.231
41.74	30.301
41.96	30.723
42.18	98.309
42.4	33.84
42.62	8.344
42.84	6.265
43.06	0.321
43.28	5.193
43.5	8.953
43.72	1.177
43.94	21.456
44.16	120.258
44.38	238.919
44.6	72.488
44.82	26.181
45.04	54.752
45.26	182.463
45.48	131.254
45.7	16.347
45.92	0.658
46.14	5.007
46.36	8.283
46.58	28.995
46.8	42.584
47.02	2.066
47.24	3.936
47.46	9.688
47.68	1.635
47.9	2.015
48.12	2.452
48.34	2.85
48.56	3.82
48.78	5.593
49	13.537
49.22	10.489
49.44	7.537
49.66	4.505
49.88	5.583
50.1	8.754
50.32	4.764
50.54	3.754
50.76	1.718
50.98	11.705
51.2	8.499
51.42	21.566
51.64	62.754
51.86	22.573
52.08	8.478
52.3	1.072
52.52	4.071
52.74	0.039
52.96	8.979
53.18	19.827
53.4	8.724
53.62	3.606
53.84	6.194
54.06	6.518
54.28	9.052
54.5	15.398
54.72	29.459
54.94	13.236
55.16	1.891
55.38	0.349
55.6	0.673
55.82	1.443
56.04	22.231
56.26	12.978
56.48	4.649
56.7	4.894
56.92	5.388
57.14	0.831
57.36	29.706
57.58	59.986
57.8	46.516
58.02	29.65
58.24	1.953
58.46	0.262
58.68	2.618
58.9	5.948
59.12	10.454
59.34	36.051
59.56	17.457
59.78	11.215
60	3.516
60.22	5.533
60.44	2.244
60.66	0.165
60.88	7.305
61.1	0.27
61.32	4.191
61.54	7.899
61.76	10.565
61.98	7.222
62.2	4.929
62.42	1.245
62.64	17.029
62.86	43.139
63.08	36.71
63.3	18.352
63.52	12.198
63.74	1.205
63.96	2.763
64.18	6.267
64.4	26.278
64.62	12.385
64.84	2.397
65.06	11.35
65.28	1.055
65.5	25.108
65.72	17.434
65.94	12.828
66.16	6.519
66.38	2.466
66.6	0.599
66.82	1.312
67.04	3.088
67.26	10.764
67.48	30.736
67.7	26.945
67.92	14.86
68.14	14.127
68.36	6.301
68.58	3.699
68.8	10.047
69.02	7.347
69.24	5.63
69.46	16.011
69.68	14.61
69.9	17.981
70.12	4.101
70.34	12.451
70.56	6.625
70.78	8.31
71	10.75
71.22	16.328
71.44	15.042
71.66	10.601
71.88	1.102
72.1	18.127
72.32	19.943
72.54	4.754
72.76	12.453
72.98	1.572
73.2	4.937
73.42	10.4
73.64	10.568
73.86	6.389
74.08	3.732
74.3	7.994
74.52	0.418
74.74	12.479
74.96	5.36
75.18	4.651
75.4	7.731
75.62	7.969
75.84	12.125
76.06	1.273
76.28	2.382
76.5	11.446
76.72	1.338
76.94	4.692
77.16	1.269
77.38	15.593
77.6	9.649
77.82	6.601
78.04	2.281
78.26	2.999
78.48	9.866
78.7	2.904
78.92	0.959
79.14	1.787
79.36	13.519
79.58	9.718
79.8	23.062
80.02	19.052
80.24	6.305
80.46	4.549
80.68	4.962
80.9	6.242
81.12	8.508
81.34	0.666
81.56	0.479
81.78	8.561
82	4.631
82.22	8.739
82.44	5.737
82.66	7.8
82.88	11.538
83.1	1.241
83.32	14.159
83.54	4.937
83.76	4.83
83.98	9.866
84.2	10.592
84.42	18.699
84.64	18.406
84.86	12.627
85.08	1.443
85.3	8.666
85.52	0.245
85.74	7.897
85.96	6.979
86.18	12.204
86.4	10.977
86.62	0.176
86.84	7.498
87.06	1.282
87.28	7.819
87.5	5.698
87.72	14.427
87.94	15.598
88.16	2.571
88.38	5.646
88.6	6.755
88.82	9.996
89.04	1.376
89.26	6.911
89.48	3.711
89.7	1.79
89.92	7.921
