Measurement: Powder, Xray Data XY Processed
Mineral: Celsian
Rruff sample: R060460
Ideal chemistry: BaAl_2_Si_2_O_8_
Locality: Benallt mine, Rhiw, Leyen Peninsula, Caernarvonshire, Wales
Source: Michael Scott
Description: White prismatic-shaped granular aggregates associated with barite and piemontite
Diffraction sample description: Powder
Measured chemistry: Ba_1.00_Al_2.00_Si_2.00_O_8_
Cell parameters: a: 8.6373(2) b: 13.0487(3) c: 14.4074(3) alpha: 90 beta: 115.124(2) gamma: 90 volume: 1470.16(4) crystal system: monoclinic
x	intensity
5	0
5.22	10.6425
5.44	12.7087
5.66	6.55825
5.88	2.08653
6.1	18.3062
6.32	3.76601
6.54	2.68379
6.76	6.91307
6.98	9.6094
7.2	1.51026
7.42	6.76271
7.64	8.73375
7.86	5.76197
8.08	15.5044
8.3	1.62737
8.52	9.0295
8.74	5.55958
8.96	5.02653
9.18	10.9916
9.4	8.38974
9.62	11.5923
9.84	8.9632
10.06	7.12653
10.28	11.143
10.5	1.76876
10.72	3.64427
10.94	1.02341
11.16	6.11444
11.38	1.19098
11.6	7.26677
11.82	2.46601
12.04	0.176522
12.26	16.0146
12.48	5.95122
12.7	1.88646
12.92	3.90154
13.14	5.72014
13.36	10.6228
13.58	406.62
13.8	3.70337
14.02	3.64717
14.24	1.54415
14.46	2.77686
14.68	4.2458
14.9	7.42423
15.12	88.7346
15.34	2.68341
15.56	5.9115
15.78	11.2593
16	6.43026
16.22	0.452219
16.44	8.6888
16.66	2.77763
16.88	5.33494
17.1	3.12747
17.32	8.16039
17.54	5.05129
17.76	0.95777
17.98	16.9978
18.2	2.5802
18.42	5.3945
18.64	7.20637
18.86	11.2911
19.08	14.2439
19.3	132.772
19.52	7.02021
19.74	2.13729
19.96	0.373436
20.18	5.64705
20.4	2.57003
20.62	2.73859
20.84	1.04605
21.06	3.95586
21.28	2.87576
21.5	6.82014
21.72	3.68067
21.94	5.54008
22.16	24.3469
22.38	10.0125
22.6	9.94962
22.82	81.333
23.04	1.69135
23.26	12.2817
23.48	108.996
23.7	3.37006
23.92	10.0827
24.14	4.67098
24.36	7.073
24.58	125.549
24.8	0.235481
25.02	70.5841
25.24	8.16991
25.46	8.52102
25.68	425.945
25.9	3.0529
26.12	5.01604
26.34	10.1131
26.56	266.296
26.78	24.9633
27	0.008702
27.22	54.2001
27.44	102.505
27.66	9.10653
27.88	2.8808
28.1	1.39348
28.32	6.6833
28.54	7.84935
28.76	10.9695
28.98	9.98953
29.2	5.00115
29.42	10.3978
29.64	152.034
29.86	2.73736
30.08	6.75174
30.3	1.58238
30.52	7.40546
30.74	98.6122
30.96	0.923707
31.18	6.06301
31.4	0.959848
31.62	5.06821
31.84	7.46656
32.06	8.78584
32.28	183.063
32.5	6.33326
32.72	2.30173
32.94	1.26879
33.16	0.920944
33.38	1.08117
33.6	2.86962
33.82	6.77077
34.04	6.59875
34.26	24.3716
34.48	66.7969
34.7	382.626
34.92	15.2811
35.14	45.2418
35.36	7.37904
35.58	0.384967
35.8	6.94438
36.02	9.02562
36.24	0.806102
36.46	6.31644
36.68	15.22
36.9	1.91263
37.12	24.53
37.34	6.64833
37.56	7.47676
37.78	0.324321
38	5.61738
38.22	6.94895
38.44	3.11664
38.66	24.0305
38.88	14.009
39.1	0.91223
39.32	1.21912
39.54	1.0948
39.76	25.0075
39.98	51.7284
40.2	10.5755
40.42	26.9257
40.64	33.3223
40.86	2.74091
41.08	5.36627
41.3	1.10815
41.52	127.607
41.74	2.15036
41.96	25.8028
42.18	17.2507
42.4	12.2465
42.62	21.3031
42.84	15.3409
43.06	34.7451
43.28	3.653
43.5	24.0639
43.72	2.66194
43.94	21.8508
44.16	14.3991
44.38	7.88366
44.6	12.5215
44.82	9.12017
45.04	27.2336
45.26	41.6772
45.48	3.62053
45.7	9.19319
45.92	3.29869
46.14	5.2928
46.36	12.3002
46.58	43.3245
46.8	7.43824
47.02	17.4885
47.24	1.50442
47.46	10.1098
47.68	27.176
47.9	0.182093
48.12	3.98708
48.34	0.06285
48.56	14.8294
48.78	6.28188
49	23.2658
49.22	34.0697
49.44	12.6016
49.66	5.34627
49.88	1.58995
50.1	3.34861
50.32	27.3941
50.54	53.0367
50.76	16.4121
50.98	12.6229
51.2	31.4506
51.42	8.55759
51.64	0.761525
51.86	1.13125
52.08	13.2544
52.3	1.24662
52.52	10.8045
52.74	13.5803
52.96	2.0947
53.18	3.00465
53.4	1.10305
53.62	9.94038
53.84	3.786
54.06	9.07743
54.28	8.88066
54.5	4.72917
54.72	45.1916
54.94	0.173182
55.16	3.28728
55.38	0.230153
55.6	11.127
55.82	22.0526
56.04	16.3307
56.26	5.558
56.48	14.4271
56.7	9.40517
56.92	10.5389
57.14	0.677801
57.36	9.69687
57.58	9.21678
57.8	3.60695
58.02	12.6514
58.24	20.6849
58.46	35.3524
58.68	7.04562
58.9	6.706
59.12	9.38523
59.34	4.05568
59.56	6.70248
59.78	1.40265
60	4.59411
60.22	21.3405
60.44	4.22438
60.66	16.9203
60.88	30.2913
61.1	9.56757
61.32	0.272271
61.54	38.7777
61.76	39.9794
61.98	5.20055
62.2	3.38273
62.42	8.50368
62.64	1.24758
62.86	20.1633
63.08	9.31861
63.3	5.0977
63.52	16.9562
63.74	3.2169
63.96	25.8656
64.18	15.8705
64.4	2.98739
64.62	8.15617
64.84	1.46872
65.06	7.96517
65.28	4.46704
65.5	5.39168
65.72	4.37258
65.94	2.56667
66.16	4.84473
66.38	5.96504
66.6	5.03486
66.82	7.14378
67.04	4.55554
67.26	10.3739
67.48	17.2623
67.7	26.1013
67.92	2.24943
68.14	2.51111
68.36	6.91723
68.58	0.329712
68.8	3.44086
69.02	12.5184
69.24	1.47801
69.46	4.20774
69.68	8.22078
69.9	37.1101
70.12	22.8127
70.34	5.48135
70.56	6.0628
70.78	6.50005
71	14.5256
71.22	7.20118
71.44	19.952
71.66	0.511041
71.88	14.3949
72.1	7.84518
72.32	5.63837
72.54	9.49982
72.76	4.57594
72.98	1.59498
73.2	23.5038
73.42	32.5861
73.64	6.82138
73.86	1.93283
74.08	18.1998
74.3	10.4942
74.52	3.91548
74.74	15.6415
74.96	4.3681
75.18	10.8814
75.4	10.5062
75.62	16.8695
75.84	7.188
76.06	6.43961
76.28	4.67492
76.5	8.71691
76.72	1.44048
76.94	4.22834
77.16	4.3741
77.38	2.87701
77.6	4.63634
77.82	1.23174
78.04	11.9042
78.26	3.70522
78.48	0.699624
78.7	8.48003
78.92	7.36779
79.14	9.3512
79.36	2.38465
79.58	3.4619
79.8	5.60659
80.02	20.7809
80.24	29.0164
80.46	8.2136
80.68	0.592132
80.9	5.39781
81.12	5.46493
81.34	10.0004
81.56	2.0048
81.78	13.2252
82	12.5882
82.22	3.33309
82.44	5.02797
82.66	5.79349
82.88	0.560311
83.1	5.41277
83.32	1.48079
83.54	13.5372
83.76	12.0205
83.98	6.04765
84.2	0.901353
84.42	0.029616
84.64	11.464
84.86	28.2676
85.08	4.48724
85.3	1.71009
85.52	6.86355
85.74	9.96011
85.96	2.95943
86.18	13.1383
86.4	8.18672
86.62	4.1918
86.84	4.12782
87.06	8.84427
87.28	6.20949
87.5	16.2695
87.72	18.6212
87.94	16.5203
88.16	4.5817
88.38	3.74647
88.6	0.110304
88.82	0.931881
89.04	6.44172
89.26	4.93983
89.48	5.77359
89.7	2.9049
89.92	8.94867
