Measurement: Powder, Xray Data XY Processed
Mineral: Cerussite
Rruff sample: R040069
Ideal chemistry: Pb^2+^CO_3_
Locality: Broken Hill, New South Wales, Australia
Source: University of Arizona Mineral Museum
Description: Reticulated composite of colorless tabular crystals
Diffraction sample description: Powder
Measured chemistry: Pb_1.04_C_0.98_O_3_
Cell parameters: a: 5.1824(1) b: 8.4957(2) c: 6.1440(2) alpha: 90. beta: 90. gamma: 90. volume: 270.516(9) crystal system: orthorhombic
x	intensity
5	0
5.22	12.57
5.44	26.726
5.66	23.561
5.88	15.976
6.1	3.073
6.32	3.713
6.54	10.114
6.76	0.364
6.98	2.07
7.2	2.576
7.42	3.826
7.64	5.929
7.86	2.605
8.08	10.744
8.3	2.612
8.52	5.065
8.74	13.029
8.96	3.062
9.18	5.087
9.4	2.139
9.62	10.046
9.84	16.125
10.06	6.496
10.28	17.072
10.5	3.129
10.72	9.825
10.94	4.221
11.16	7.595
11.38	3.896
11.6	7.081
11.82	2.676
12.04	8.401
12.26	0.49
12.48	17.137
12.7	13.935
12.92	3.058
13.14	10.726
13.36	10.545
13.58	3.548
13.8	3.611
14.02	3.513
14.24	12.767
14.46	6.684
14.68	2.458
14.9	2.636
15.12	5.112
15.34	1.021
15.56	13.94
15.78	12.979
16	1.797
16.22	5.621
16.44	4.712
16.66	9.513
16.88	6.537
17.1	10.537
17.32	3.097
17.54	5.19
17.76	4.414
17.98	2.158
18.2	1.946
18.42	2.941
18.64	0.364
18.86	10.061
19.08	3.65
19.3	0.663
19.52	9.527
19.74	9.165
19.96	17.498
20.18	48.535
20.4	4.607
20.62	15.004
20.84	26.081
21.06	25.316
21.28	6.537
21.5	1.861
21.72	14.172
21.94	1.636
22.16	5.631
22.38	40.389
22.6	10.967
22.82	8.218
23.04	15.162
23.26	5.987
23.48	2.017
23.7	2.036
23.92	1.642
24.14	6.204
24.36	14.977
24.58	31.236
24.8	1801
25.02	118.175
25.24	56.434
25.46	375.906
25.68	59.146
25.9	16.006
26.12	0.849
26.34	7.251
26.56	0.814
26.78	4.043
27	5.046
27.22	6.574
27.44	0.676
27.66	7.868
27.88	6.796
28.1	10.021
28.32	12.093
28.54	4.16
28.76	24.017
28.98	67.924
29.2	91.416
29.42	27.453
29.64	11.457
29.86	7.496
30.08	14.551
30.3	5.931
30.52	1.261
30.74	11.433
30.96	69.461
31.18	12.384
31.4	4.476
31.62	7.312
31.84	4.086
32.06	10.107
32.28	4.361
32.5	11.371
32.72	9.813
32.94	12.089
33.16	4.4
33.38	17.639
33.6	4.573
33.82	5.395
34.04	10.928
34.26	4.321
34.48	12.927
34.7	90.687
34.92	11.737
35.14	5.244
35.36	18.038
35.58	304.499
35.8	49.394
36.02	103.278
36.24	293.454
36.46	24.827
36.68	5.247
36.9	4.42
37.12	1.534
37.34	2.703
37.56	3.146
37.78	7.678
38	6.905
38.22	8.056
38.44	3.279
38.66	8.967
38.88	3.89
39.1	19.768
39.32	6.79
39.54	9.869
39.76	0.287
39.98	1.893
40.2	9.839
40.42	5.633
40.64	23.515
40.86	60.331
41.08	7.134
41.3	4.564
41.52	0.17
41.74	2.792
41.96	2.982
42.18	9.314
42.4	6.724
42.62	30.09
42.84	3.539
43.06	5.746
43.28	34.704
43.5	390.768
43.72	44.637
43.94	9.218
44.16	16.244
44.38	8.966
44.6	3.259
44.82	8.333
45.04	28.025
45.26	125.301
45.48	12.914
45.7	32.643
45.92	97.164
46.14	18.036
46.36	3.695
46.58	2.176
46.8	30.011
47.02	467.867
47.24	61.302
47.46	23.67
47.68	3.484
47.9	2.268
48.12	3.945
48.34	3.927
48.56	8.032
48.78	16.988
49	229.535
49.22	63.423
49.44	82.158
49.66	25.717
49.88	5.962
50.1	0.281
50.32	2.677
50.54	1.566
50.76	15.82
50.98	30.429
51.2	6.028
51.42	5.424
51.64	0.965
51.86	3.129
52.08	10.842
52.3	39.375
52.52	24.681
52.74	12.031
52.96	0.481
53.18	14.238
53.4	11.288
53.62	5.666
53.84	2.736
54.06	12.758
54.28	18.454
54.5	4.077
54.72	12.143
54.94	0.135
55.16	9.408
55.38	12.978
55.6	11.931
55.82	9.559
56.04	1.665
56.26	32.306
56.48	35.641
56.7	10.214
56.92	7.647
57.14	12.876
57.36	7.585
57.58	5.728
57.8	5.645
58.02	23.17
58.24	45.079
58.46	1.662
58.68	4.095
58.9	12.886
59.12	97.203
59.34	48.655
59.56	7.133
59.78	9.518
60	1.113
60.22	40.83
60.44	14.074
60.66	3.23
60.88	7.788
61.1	6.421
61.32	13.069
61.54	19.656
61.76	43.199
61.98	10.655
62.2	0.984
62.42	10.012
62.64	35.43
62.86	23.184
63.08	39.993
63.3	9.86
63.52	4.781
63.74	4.305
63.96	13.748
64.18	37.885
64.4	28.093
64.62	22.402
64.84	1.55
65.06	3.052
65.28	25.623
65.5	9.151
65.72	5.938
65.94	123.804
66.16	33.017
66.38	6.662
66.6	11.416
66.82	2.86
67.04	2.217
67.26	8.395
67.48	10.956
67.7	14.469
67.92	11.827
68.14	12.812
68.36	5.784
68.58	11.423
68.8	7.058
69.02	3.378
69.24	6.044
69.46	5.311
69.68	3.323
69.9	10.384
70.12	5.94
70.34	8.97
70.56	13.781
70.78	31.928
71	30.652
71.22	8.464
71.44	14.846
71.66	12.943
71.88	1.455
72.1	12.148
72.32	104.837
72.54	60.577
72.76	14.285
72.98	23.221
73.2	10.165
73.42	6.557
73.64	54.785
73.86	56.219
74.08	30.647
74.3	9.032
74.52	0.52
74.74	26.173
74.96	19.255
75.18	17.577
75.4	6.566
75.62	12.595
75.84	10.391
76.06	4.711
76.28	2.931
76.5	21.997
76.72	27.684
76.94	28.972
77.16	9.681
77.38	4.602
77.6	4.275
77.82	1.186
78.04	12.1
78.26	5.975
78.48	11.887
78.7	24.319
78.92	15.631
79.14	9.552
79.36	4.112
79.58	1.354
79.8	8.318
80.02	9.013
80.24	3.762
80.46	19.439
80.68	11.168
80.9	26.896
81.12	24.214
81.34	10.646
81.56	19.478
81.78	10.698
82	6.852
82.22	5.026
82.44	2.193
82.66	6.416
82.88	5.588
83.1	13.756
83.32	18.862
83.54	10.204
83.76	6.261
83.98	29.358
84.2	25.502
84.42	12.746
84.64	2.287
84.86	4.628
85.08	12.042
85.3	12.169
85.52	15.276
85.74	0.625
85.96	9.507
86.18	11.572
86.4	9.526
86.62	13.484
86.84	3.468
87.06	11.668
87.28	7.6
87.5	14.347
87.72	8.451
87.94	6.589
88.16	0.994
88.38	6.914
88.6	9.823
88.82	6.91
89.04	4.136
89.26	6.957
89.48	6.438
89.7	6.045
89.92	3.366
