Measurement: Powder, Xray Data XY Processed
Mineral: Chabazite-Ca
Rruff sample: R050014
Ideal chemistry: Ca_2_Al_4_Si_8_O_24_13H_2_O
Locality: Tablo Mountain, Baja California, Mexico
Source: University of Arizona Mineral Museum
Description: Light tan colored rhombohedral single crystals
Diffraction sample description: Powder
Measured chemistry: (Ca_0.72_Mg_0.11_K_0.09_Sr_0.06_Na_0.01_)_Σ=1_(Si_4.12_Al_1.88_)O_12_·6H_2_O
Cell parameters: a: 9.3992(2) b: 9.3992(2) c: 9.3992(2) alpha: 94.2849(4) beta: 94.2849(4) gamma: 94.2849(4) volume: 823.04(6) crystal system: rhombohedral
x	intensity
5	0
5.22	1.24
5.44	0.313
5.66	7.287
5.88	8.744
6.1	13.325
6.32	10.836
6.54	11.301
6.76	7.924
6.98	24.79
7.2	7.341
7.42	5.371
7.64	9.041
7.86	9.527
8.08	4.865
8.3	4.838
8.52	5.048
8.74	6.292
8.96	0.148
9.18	0.921
9.4	70.684
9.62	21.208
9.84	20.805
10.06	6.358
10.28	0.387
10.5	5.767
10.72	7.978
10.94	8.037
11.16	7.732
11.38	12.807
11.6	3.765
11.82	0.482
12.04	13.566
12.26	6.59
12.48	7.071
12.7	4.514
12.92	137.348
13.14	17.169
13.36	3.124
13.58	4.084
13.8	8.904
14.02	19.978
14.24	8.279
14.46	5.337
14.68	6.1
14.9	9.754
15.12	8.806
15.34	4.02
15.56	10.913
15.78	0.17
16	201.391
16.22	10.631
16.44	9.791
16.66	8.551
16.88	9.26
17.1	16.506
17.32	4.886
17.54	2.927
17.76	145.121
17.98	17.092
18.2	12.864
18.42	9.946
18.64	17.48
18.86	4.236
19.08	83.225
19.3	17.246
19.52	7.074
19.74	1.718
19.96	4.64
20.18	11.869
20.4	15.391
20.62	689.254
20.84	18.174
21.06	7.509
21.28	2.579
21.5	5.762
21.72	8.014
21.94	1.098
22.16	4.602
22.38	48.093
22.6	10.931
22.82	10.921
23.04	134.433
23.26	11.297
23.48	2.953
23.7	3.681
23.92	1.179
24.14	2.531
24.36	4.049
24.58	10.222
24.8	69.528
25.02	130.037
25.24	14.781
25.46	4.614
25.68	6.83
25.9	101.884
26.12	2.928
26.34	4.558
26.56	11.092
26.78	7.63
27	0.1
27.22	0.571
27.44	7.765
27.66	53.923
27.88	13.926
28.1	35.466
28.32	0.939
28.54	8.149
28.76	2.345
28.98	4.683
29.2	7.061
29.42	0.561
29.64	14.894
29.86	1.209
30.08	5.853
30.3	1.465
30.52	214.167
30.74	65.446
30.96	119.955
31.18	76.746
31.4	5.676
31.62	13.128
31.84	2.212
32.06	2.142
32.28	24.612
32.5	11.101
32.72	4.999
32.94	0.05
33.16	12.226
33.38	35.82
33.6	14.879
33.82	12.865
34.04	2.619
34.26	6.074
34.48	101.488
34.7	8.214
34.92	18.98
35.14	11.41
35.36	5.691
35.58	3.388
35.8	35.009
36.02	72.353
36.24	16.128
36.46	0.787
36.68	3.051
36.9	7.538
37.12	4.936
37.34	1.267
37.56	12.483
37.78	4.399
38	6.359
38.22	10.784
38.44	8.525
38.66	1.983
38.88	7.442
39.1	13.46
39.32	23.565
39.54	0.581
39.76	3.664
39.98	0.232
40.2	6.56
40.42	2.848
40.64	10.551
40.86	9.801
41.08	4.468
41.3	6.869
41.52	11.963
41.74	5.632
41.96	7.53
42.18	6.441
42.4	5.888
42.62	11.32
42.84	10.207
43.06	0.36
43.28	32.821
43.5	28.624
43.72	15.446
43.94	11.519
44.16	0.714
44.38	4.851
44.6	6.883
44.82	19.899
45.04	9.066
45.26	6.143
45.48	4.51
45.7	13.583
45.92	8.592
46.14	8.432
46.36	3.51
46.58	6.461
46.8	3.817
47.02	16.912
47.24	8.861
47.46	5.79
47.68	16.563
47.9	6.077
48.12	3.156
48.34	7.299
48.56	11.238
48.78	38.291
49	18.519
49.22	10.49
49.44	11.998
49.66	13.725
49.88	4.893
50.1	3.07
50.32	0.513
50.54	56.916
50.76	28.375
50.98	9.701
51.2	11.238
51.42	12.389
51.64	14.509
51.86	3.725
52.08	0.876
52.3	0.953
52.52	10.502
52.74	22.305
52.96	12.288
53.18	69.925
53.4	16.955
53.62	2.241
53.84	1.399
54.06	26.488
54.28	20.609
54.5	8.055
54.72	0.778
54.94	12.672
55.16	11.445
55.38	11.549
55.6	5.661
55.82	16.834
56.04	13.565
56.26	9.877
56.48	12.343
56.7	8.564
56.92	2.556
57.14	0.563
57.36	1.874
57.58	0.334
57.8	6.471
58.02	11.624
58.24	4.458
58.46	3.49
58.68	6.304
58.9	6.726
59.12	9.773
59.34	28.106
59.56	16.209
59.78	7.149
60	1.917
60.22	12.945
60.44	2.154
60.66	5.263
60.88	9.807
61.1	16.886
61.32	8.96
61.54	6.65
61.76	2.618
61.98	7.597
62.2	8.763
62.42	3.86
62.64	8.796
62.86	5.75
63.08	8.372
63.3	3.175
63.52	10.018
63.74	9.326
63.96	4.567
64.18	4.496
64.4	18.144
64.62	15.985
64.84	3.719
65.06	3.526
65.28	6.196
65.5	6.007
65.72	4.966
65.94	14.141
66.16	3.969
66.38	8.744
66.6	19.063
66.82	9.585
67.04	10.958
67.26	11.378
67.48	10.691
67.7	2.836
67.92	2.099
68.14	3.84
68.36	12.461
68.58	3.354
68.8	8.224
69.02	12.74
69.24	2.26
69.46	2.838
69.68	7.491
69.9	11.158
70.12	3.011
70.34	8.392
70.56	1.743
70.78	2.878
71	14.015
71.22	17.001
71.44	6.33
71.66	9.216
71.88	3.504
72.1	11.878
72.32	5.097
72.54	9.47
72.76	2.149
72.98	4.847
73.2	0.889
73.42	9.93
73.64	0.853
73.86	9.779
74.08	15.064
74.3	4.051
74.52	2.14
74.74	9.336
74.96	11.659
75.18	3.789
75.4	14.944
75.62	1.989
75.84	2.085
76.06	1.4
76.28	6.59
76.5	5.734
76.72	9.786
76.94	1.985
77.16	1.675
77.38	6.559
77.6	4.808
77.82	0.854
78.04	0.51
78.26	5.751
78.48	2.305
78.7	6.626
78.92	2.595
79.14	5.466
79.36	8.33
79.58	5.281
79.8	8.954
80.02	15.716
80.24	13.491
80.46	5.326
80.68	1.274
80.9	7.552
81.12	11.698
81.34	6.758
81.56	1.837
81.78	0.904
82	8.906
82.22	10.99
82.44	11.261
82.66	3.206
82.88	7.211
83.1	5.1
83.32	12.868
83.54	10.986
83.76	2.29
83.98	13.573
84.2	2.774
84.42	1.21
84.64	4.791
84.86	1.84
85.08	8.195
85.3	0.267
85.52	0.601
85.74	9.475
85.96	7.449
86.18	13.281
86.4	11.353
86.62	4.367
86.84	6.146
87.06	9.751
87.28	5.765
87.5	1.415
87.72	1.635
87.94	13.669
88.16	0.158
88.38	2.994
88.6	6.149
88.82	2.396
89.04	6.589
89.26	0.229
89.48	10.263
89.7	7.599
89.92	4.237
