Measurement: Powder, Xray Data XY Processed
Mineral: Chabazite-Ca
Rruff sample: R050075
Ideal chemistry: Ca_2_Al_4_Si_8_O_24_13H_2_O
Locality: Victoria, Australia
Source: Rock Currier
Description: White pseudohexagonal crystals
Diffraction sample description: Powder
Measured chemistry: (Ca_0.79_Na_0.22_K_0.14_)_Σ=1.15_(Si_4.08_Al_1.92_)O_12_·6H_2_O
Cell parameters: a: 9.3994(4) b: 9.3994(4) c: 9.3994(4) alpha: 94.2779(5) beta: 94.2779(5) gamma: 94.2779(5) volume: 823.13(10) crystal system: rhombohedral
x	intensity
5	0
5.22	1.334
5.44	6.793
5.66	8.337
5.88	10.312
6.1	7.693
6.32	13.043
6.54	8.396
6.76	4.727
6.98	2.76
7.2	8.909
7.42	7.533
7.64	4.929
7.86	8.264
8.08	2.391
8.3	4.576
8.52	19.4
8.74	10.353
8.96	3.213
9.18	4.243
9.4	134.274
9.62	22.825
9.84	5.138
10.06	10.637
10.28	3.342
10.5	7.555
10.72	8.129
10.94	0.643
11.16	2.589
11.38	6.575
11.6	8.49
11.82	12.099
12.04	6.91
12.26	9.529
12.48	13.093
12.7	4.181
12.92	62.844
13.14	3.436
13.36	9.3
13.58	12.362
13.8	7.521
14.02	19.597
14.24	6.936
14.46	11.362
14.68	1.449
14.9	3.516
15.12	10.682
15.34	8.905
15.56	16.09
15.78	0.547
16	236.388
16.22	19.293
16.44	1.339
16.66	7.096
16.88	7.876
17.1	7.22
17.32	6.328
17.54	4.499
17.76	185.56
17.98	3.387
18.2	10.885
18.42	10.826
18.64	0.87
18.86	12.188
19.08	12.226
19.3	1.189
19.52	7.775
19.74	5.661
19.96	1.606
20.18	5.781
20.4	12.064
20.62	480.3
20.84	6.29
21.06	2.22
21.28	2.866
21.5	1.061
21.72	4.227
21.94	49.249
22.16	1.43
22.38	24.753
22.6	1.615
22.82	8.704
23.04	207.737
23.26	11.761
23.48	8.676
23.7	9.582
23.92	2.311
24.14	3.071
24.36	13.997
24.58	6.128
24.8	73.665
25.02	15.525
25.24	0.488
25.46	8.012
25.68	15.078
25.9	80.183
26.12	9.358
26.34	2.803
26.56	8.941
26.78	5.009
27	0.738
27.22	2.049
27.44	3.106
27.66	41.796
27.88	8.608
28.1	101.891
28.32	11.365
28.54	1.32
28.76	12.15
28.98	2.833
29.2	10.477
29.42	1.997
29.64	8.235
29.86	2.629
30.08	9.956
30.3	9.317
30.52	331.439
30.74	60.035
30.96	380.808
31.18	8.386
31.4	0.473
31.62	63.109
31.84	0.753
32.06	10.814
32.28	31.273
32.5	0.577
32.72	3.963
32.94	5.109
33.16	1.719
33.38	51.433
33.6	13.675
33.82	8.398
34.04	7.29
34.26	6.003
34.48	57.383
34.7	15.569
34.92	15.585
35.14	3.111
35.36	6.102
35.58	6.188
35.8	8.439
36.02	69.598
36.24	6.014
36.46	13.105
36.68	4.584
36.9	6.526
37.12	2.493
37.34	5.597
37.56	5.799
37.78	2.142
38	5.584
38.22	11.432
38.44	1.412
38.66	10.08
38.88	16.983
39.1	11.934
39.32	17.836
39.54	1.88
39.76	6.993
39.98	10.048
40.2	11.293
40.42	3.534
40.64	4.571
40.86	0.68
41.08	5.961
41.3	11.253
41.52	5.055
41.74	13.012
41.96	14.288
42.18	11.233
42.4	11.277
42.62	21.155
42.84	0.022
43.06	5.202
43.28	32.25
43.5	28.118
43.72	0.319
43.94	8.755
44.16	10.075
44.38	2.345
44.6	11.912
44.82	3.715
45.04	15.811
45.26	1.097
45.48	4.984
45.7	3.01
45.92	5.216
46.14	5.496
46.36	3.485
46.58	12.108
46.8	3.965
47.02	12.478
47.24	8.864
47.46	7.792
47.68	9.528
47.9	1.428
48.12	4.347
48.34	9.081
48.56	9.707
48.78	8.766
49	7.04
49.22	11.036
49.44	0.029
49.66	7.589
49.88	6.842
50.1	0.04
50.32	6.481
50.54	78.812
50.76	18.217
50.98	2.519
51.2	12.023
51.42	8.098
51.64	9.406
51.86	2.305
52.08	4.94
52.3	0.576
52.52	1.628
52.74	5.934
52.96	36.941
53.18	30.877
53.4	7.902
53.62	12.964
53.84	7.758
54.06	24.761
54.28	11.966
54.5	1.269
54.72	9.085
54.94	3.871
55.16	7.688
55.38	9.927
55.6	4.912
55.82	10.019
56.04	21.816
56.26	8.899
56.48	2.001
56.7	7.79
56.92	6.548
57.14	3.415
57.36	3.429
57.58	1.406
57.8	7.659
58.02	18.835
58.24	5.636
58.46	4.595
58.68	5.715
58.9	6.572
59.12	7.587
59.34	280.891
59.56	27.901
59.78	7.869
60	0.307
60.22	4.389
60.44	8.548
60.66	5.589
60.88	12.579
61.1	13.691
61.32	7.604
61.54	4.558
61.76	6.196
61.98	13.039
62.2	0.708
62.42	9.239
62.64	4.271
62.86	6.964
63.08	6.008
63.3	1.944
63.52	68.033
63.74	14.732
63.96	7.845
64.18	15.205
64.4	6.942
64.62	0.003
64.84	7.023
65.06	1.918
65.28	0.771
65.5	3.635
65.72	10.534
65.94	43.288
66.16	0.788
66.38	2.83
66.6	11.848
66.82	1.045
67.04	6.51
67.26	9.8
67.48	1.178
67.7	1.371
67.92	1.538
68.14	3.752
68.36	2.837
68.58	6.908
68.8	22.896
69.02	9.652
69.24	10.567
69.46	6.204
69.68	0.848
69.9	5.892
70.12	7.939
70.34	9.183
70.56	2.118
70.78	1.126
71	4.047
71.22	9.161
71.44	3.289
71.66	7.383
71.88	4.565
72.1	0.235
72.32	4.057
72.54	1.029
72.76	5.809
72.98	7.676
73.2	6.814
73.42	0.32
73.64	4.44
73.86	18.559
74.08	7.223
74.3	5.114
74.52	14.834
74.74	4.618
74.96	13.689
75.18	10.792
75.4	4.17
75.62	10.11
75.84	2.673
76.06	2.846
76.28	6.966
76.5	14.183
76.72	5.39
76.94	5.491
77.16	11.544
77.38	2.79
77.6	7.993
77.82	12.098
78.04	6.235
78.26	5.899
78.48	1.077
78.7	3.873
78.92	0.211
79.14	1.801
79.36	15.806
79.58	8.704
79.8	3.343
80.02	11.169
80.24	11.755
80.46	3.925
80.68	6.106
80.9	8.238
81.12	10.277
81.34	8.372
81.56	3.353
81.78	8.318
82	1.753
82.22	12.799
82.44	3.862
82.66	0.054
82.88	7.835
83.1	8.674
83.32	43.693
83.54	13.871
83.76	6.246
83.98	7.433
84.2	4.58
84.42	8.468
84.64	10.63
84.86	3.894
85.08	0.098
85.3	0.2
85.52	5.213
85.74	4.222
85.96	5.51
86.18	6.486
86.4	1.533
86.62	1.594
86.84	13.675
87.06	3.81
87.28	6.924
87.5	2.044
87.72	5.244
87.94	14.397
88.16	6.44
88.38	7.319
88.6	3.201
88.82	4.057
89.04	7.126
89.26	4.018
89.48	4.543
89.7	7.701
89.92	0.747
