Measurement: Powder, Xray Data XY Processed
Mineral: Chalcocite
Rruff sample: R050067
Ideal chemistry: Cu^1+^_2_S^2-^
Locality: Flambeau, Rusk County, Wisconsin, USA
Source: Rock Currier
Description: Iridescent blue irregular hexagonal tablet
Diffraction sample description: Powder
Measured chemistry: Cu_2.00_S_1.00_
Cell parameters: a: 15.264(1) b: 11.8766(6) c: 13.505(1) alpha: 90 beta: 116.388(9) gamma: 90 volume: 2193.1(0) crystal system: monoclinic
x	intensity
5	0
5.22	26.348
5.44	20.937
5.66	10.789
5.88	15.045
6.1	18.001
6.32	1.497
6.54	33.712
6.76	11.529
6.98	18.223
7.2	8.536
7.42	32.201
7.64	14.658
7.86	10.225
8.08	27.963
8.3	11.474
8.52	12.36
8.74	15.922
8.96	26.033
9.18	0.346
9.4	25.498
9.62	20.69
9.84	1.593
10.06	2.416
10.28	2.852
10.5	22.716
10.72	6.543
10.94	5.773
11.16	6.345
11.38	7.934
11.6	0.372
11.82	10.367
12.04	13.401
12.26	1.842
12.48	4.965
12.7	20.048
12.92	32.026
13.14	16.521
13.36	5.274
13.58	18.939
13.8	14.489
14.02	22.466
14.24	23.926
14.46	18.492
14.68	16.605
14.9	18.025
15.12	15.464
15.34	20.131
15.56	4.153
15.78	23.904
16	7.482
16.22	13.38
16.44	6.781
16.66	4.236
16.88	1.976
17.1	6.03
17.32	22.563
17.54	9.984
17.76	29.853
17.98	7.809
18.2	5.729
18.42	12.799
18.64	8.281
18.86	9.449
19.08	17.485
19.3	22.339
19.52	17.096
19.74	1.141
19.96	7.111
20.18	10.905
20.4	8.448
20.62	2.768
20.84	12.616
21.06	33.718
21.28	7.191
21.5	0.68
21.72	18.812
21.94	7.231
22.16	2.26
22.38	19.778
22.6	1.972
22.82	10.119
23.04	17.901
23.26	16.314
23.48	21.236
23.7	28.416
23.92	61.314
24.14	16.41
24.36	0.969
24.58	28.595
24.8	39.43
25.02	18.933
25.24	25.729
25.46	10.111
25.68	27.85
25.9	14.768
26.12	6.389
26.34	15.634
26.56	18.505
26.78	25.885
27	69.316
27.22	40.807
27.44	9.874
27.66	0.875
27.88	4.7
28.1	81.526
28.32	64.204
28.54	21.849
28.76	0.506
28.98	11.707
29.2	13.52
29.42	16.207
29.64	12.328
29.86	15.972
30.08	25.239
30.3	90.62
30.52	19.375
30.74	10.852
30.96	16.688
31.18	26.184
31.4	17.805
31.62	1.503
31.84	1.226
32.06	3.567
32.28	11.635
32.5	48.356
32.72	30.816
32.94	139.446
33.16	9.798
33.38	22.191
33.6	67.741
33.82	17.6
34.04	11.393
34.26	34.154
34.48	13.476
34.7	10.255
34.92	11.864
35.14	30.752
35.36	1.927
35.58	73.808
35.8	6.251
36.02	5.483
36.24	40.22
36.46	57.928
36.68	5.674
36.9	4.381
37.12	7.32
37.34	63.772
37.56	165.515
37.78	21.301
38	20.881
38.22	31.097
38.44	31.898
38.66	85.159
38.88	17.266
39.1	2.523
39.32	9.457
39.54	8.364
39.76	10.665
39.98	15.985
40.2	64.01
40.42	51.539
40.64	10.278
40.86	55.485
41.08	3.074
41.3	5.461
41.52	16.752
41.74	11.022
41.96	7.275
42.18	12.459
42.4	34.108
42.62	38.684
42.84	31.02
43.06	12.39
43.28	29.395
43.5	30.337
43.72	22.394
43.94	0.356
44.16	3.075
44.38	5.851
44.6	8.159
44.82	40.682
45.04	10.546
45.26	24.058
45.48	23.482
45.7	41.102
45.92	156.049
46.14	117.674
46.36	49.171
46.58	56.807
46.8	1.051
47.02	1.404
47.24	12.32
47.46	10.257
47.68	22.435
47.9	15.588
48.12	36.111
48.34	59.742
48.56	137.731
48.78	20.052
49	17.385
49.22	2.251
49.44	12.243
49.66	18.775
49.88	2.223
50.1	18.676
50.32	6.251
50.54	34.41
50.76	14.009
50.98	18.282
51.2	26.612
51.42	31.628
51.64	25.535
51.86	8.962
52.08	24.5
52.3	14.343
52.52	12.521
52.74	24.379
52.96	11.188
53.18	26.666
53.4	16.829
53.62	51.751
53.84	56
54.06	18.913
54.28	16.446
54.5	41.869
54.72	8.998
54.94	19.027
55.16	10.117
55.38	14.817
55.6	5.209
55.82	12.799
56.04	14.012
56.26	21.469
56.48	6.721
56.7	12.034
56.92	8.228
57.14	10.704
57.36	10.221
57.58	22.559
57.8	20.311
58.02	27.504
58.24	4.675
58.46	31.622
58.68	8.43
58.9	21.799
59.12	10.569
59.34	12.965
59.56	15.937
59.78	3.758
60	11.516
60.22	37.713
60.44	15.096
60.66	21.272
60.88	31.501
61.1	27.78
61.32	26.808
61.54	6.803
61.76	4.474
61.98	3.843
62.2	21.984
62.42	10.961
62.64	8.404
62.86	28.823
63.08	27.266
63.3	15.455
63.52	0.622
63.74	17.656
63.96	0.37
64.18	6.941
64.4	17.526
64.62	10.644
64.84	21.853
65.06	16.191
65.28	7.051
65.5	22.642
65.72	19.112
65.94	25.063
66.16	15.99
66.38	16.903
66.6	14.371
66.82	2.544
67.04	30.494
67.26	6.275
67.48	12.74
67.7	22.706
67.92	16.488
68.14	24.367
68.36	12.964
68.58	20.332
68.8	10.083
69.02	20.982
69.24	5.996
69.46	25.524
69.68	13.738
69.9	7.257
70.12	0.015
70.34	1.365
70.56	16.987
70.78	25.019
71	35.366
71.22	5.592
71.44	26.775
71.66	8.365
71.88	6.577
72.1	30.72
72.32	9.211
72.54	5.459
72.76	25.316
72.98	4.239
73.2	20.378
73.42	24.764
73.64	17.037
73.86	27.51
74.08	3.19
74.3	8.508
74.52	16.974
74.74	23.127
74.96	16.69
75.18	11.893
75.4	19.432
75.62	7.851
75.84	5.506
76.06	23.326
76.28	27.052
76.5	14.255
76.72	11.477
76.94	25.531
77.16	18.095
77.38	6.412
77.6	7.183
77.82	23.187
78.04	0.104
78.26	34.927
78.48	10.263
78.7	12.882
78.92	7.868
79.14	12.006
79.36	14.692
79.58	9.077
79.8	7.794
80.02	1.949
80.24	33.291
80.46	21.131
80.68	30.24
80.9	16.386
81.12	17.28
81.34	21.339
81.56	8.737
81.78	18.335
82	0.295
82.22	5.047
82.44	28.723
82.66	24.022
82.88	6.176
83.1	4.098
83.32	18.941
83.54	19.99
83.76	9.162
83.98	26.195
84.2	15.99
84.42	16.129
84.64	29.29
84.86	16.156
85.08	12.343
85.3	37.429
85.52	31.683
85.74	2.723
85.96	4.7
86.18	14.401
86.4	33.287
86.62	30.67
86.84	34.558
87.06	3.525
87.28	16.73
87.5	13.003
87.72	7.19
87.94	33.72
88.16	16.471
88.38	32.253
88.6	40.58
88.82	8.828
89.04	15.668
89.26	25.878
89.48	17.76
89.7	13.61
89.92	18.909
