Measurement: Powder, Xray Data XY Processed
Mineral: Chalcopyrite
Rruff sample: R050222
Ideal chemistry: Cu^1+^Fe^3+^S^2-^_2_
Locality: Iron Cap mine, Landsman Camp, Graham County, Arizona, USA
Source: Bob Downs
Description: Group of brass yellow metallic tetrahedra, dark streaks represent alteration by bacteria where S is left behind
Diffraction sample description: Powder
Measured chemistry: Cu_1.00_Fe_1.00_S_2.00_
Cell parameters: a: 5.2840(9) b: 5.2840(9) c: 10.433(4) alpha: 90 beta: 90 gamma: 90 volume: 291.30(9) crystal system: tetragonal
x	intensity
5	0
5.22	15.0274
5.44	12.2501
5.66	10.8088
5.88	2.2575
6.1	14.1658
6.32	13.0709
6.54	11.3749
6.76	16.6835
6.98	13.866
7.2	17.8984
7.42	3.77793
7.64	2.26073
7.86	14.4263
8.08	25.1139
8.3	15.6453
8.52	17.6135
8.74	2.92979
8.96	14.6974
9.18	16.0733
9.4	32.2966
9.62	13.501
9.84	5.07064
10.06	1.43758
10.28	13.4683
10.5	6.45481
10.72	6.09146
10.94	12.5088
11.16	17.183
11.38	15.4675
11.6	6.10862
11.82	20.7337
12.04	14.3444
12.26	19.7863
12.48	20.4219
12.7	3.60664
12.92	23.3965
13.14	20.7876
13.36	8.11341
13.58	22.455
13.8	22.067
14.02	5.03272
14.24	19.6508
14.46	27.7027
14.68	9.9584
14.9	27.3466
15.12	6.56959
15.34	20.8218
15.56	7.28355
15.78	22.1225
16	21.7095
16.22	26.4586
16.44	10.2765
16.66	3.59811
16.88	7.39853
17.1	13.0996
17.32	11.5287
17.54	26.7202
17.76	14.3944
17.98	0.187782
18.2	15.6199
18.42	4.61699
18.64	4.24288
18.86	15.6574
19.08	17.4361
19.3	26.4808
19.52	15.3332
19.74	1.05467
19.96	19.9394
20.18	11.9319
20.4	9.50594
20.62	10.3746
20.84	28.1298
21.06	7.21632
21.28	21.4884
21.5	11.7386
21.72	11.2057
21.94	1.15063
22.16	7.94266
22.38	25.1437
22.6	2.77774
22.82	22.2678
23.04	5.13684
23.26	35.3153
23.48	30.2572
23.7	27.2453
23.92	23.8069
24.14	9.69759
24.36	21.5687
24.58	17.688
24.8	12.0321
25.02	18.1003
25.24	6.69476
25.46	2.567
25.68	17.8791
25.9	9.64381
26.12	5.63312
26.34	1.66775
26.56	27.8183
26.78	24.6158
27	18.7173
27.22	3.85832
27.44	19.1705
27.66	22.1882
27.88	2.13982
28.1	15.916
28.32	19.5871
28.54	22.9675
28.76	29.2926
28.98	28.5285
29.2	102.439
29.42	417.291
29.64	93.926
29.86	24.7171
30.08	10.5765
30.3	11.36
30.52	6.65222
30.74	2.72544
30.96	16.1889
31.18	7.32316
31.4	1.60572
31.62	49.4339
31.84	11.9973
32.06	7.09093
32.28	16.7003
32.5	21.185
32.72	19.9375
32.94	23.4667
33.16	14.3536
33.38	8.69842
33.6	10.9649
33.82	8.82747
34.04	3.3154
34.26	16.5762
34.48	24.9039
34.7	16.1048
34.92	13.4288
35.14	15.6901
35.36	15.0179
35.58	25.5711
35.8	13.2552
36.02	12.826
36.24	28.6703
36.46	10.8225
36.68	10.5724
36.9	26.6729
37.12	23.7575
37.34	44.6078
37.56	20.4071
37.78	14.0139
38	30.2708
38.22	24.8324
38.44	9.65936
38.66	26.3924
38.88	12.7544
39.1	12.7743
39.32	16.1051
39.54	21.8682
39.76	22.3474
39.98	4.49441
40.2	14.1672
40.42	20.8865
40.64	23.7095
40.86	35.363
41.08	20.0314
41.3	18.2077
41.52	33.9316
41.74	15.2871
41.96	1.54816
42.18	13.6873
42.4	10.3769
42.62	16.3633
42.84	33.4811
43.06	24.7496
43.28	37.8401
43.5	8.7057
43.72	28.855
43.94	16.9646
44.16	14.4643
44.38	23.7542
44.6	11.0738
44.82	17.5384
45.04	26.1625
45.26	6.08115
45.48	25.5796
45.7	1.1514
45.92	1.9416
46.14	10.7839
46.36	15.1902
46.58	2.02251
46.8	3.51461
47.02	8.17416
47.24	8.25282
47.46	20.7748
47.68	1.75676
47.9	18.6572
48.12	15.2798
48.34	26.1457
48.56	42.0132
48.78	80.4465
49	72.7307
49.22	69.7867
49.44	15.0771
49.66	7.03302
49.88	9.94607
50.1	2.8599
50.32	19.5765
50.54	16.3627
50.76	16.1267
50.98	16.4992
51.2	19.7666
51.42	1.77918
51.64	14.1053
51.86	1.17114
52.08	32.5875
52.3	13.3971
52.52	28.7814
52.74	6.76685
52.96	41.8043
53.18	23.886
53.4	11.5252
53.62	9.52919
53.84	27.9186
54.06	2.17387
54.28	13.3551
54.5	29.9798
54.72	31.829
54.94	14.7405
55.16	13.3611
55.38	1.93068
55.6	19.9669
55.82	24.6145
56.04	16.1845
56.26	9.71132
56.48	11.0474
56.7	20.2435
56.92	11.892
57.14	25.6625
57.36	20.147
57.58	29.2606
57.8	59.2602
58.02	37.5205
58.24	37.1398
58.46	22.182
58.68	21.7144
58.9	10.981
59.12	6.93779
59.34	0.490479
59.56	4.44038
59.78	18.3751
60	6.34512
60.22	23.192
60.44	4.65556
60.66	39.4995
60.88	41.1066
61.1	25.4399
61.32	13.0629
61.54	18.8386
61.76	22.6681
61.98	0.190155
62.2	8.94552
62.42	37.7204
62.64	21.0392
62.86	1.73796
63.08	4.58602
63.3	7.05262
63.52	2.81455
63.74	2.86971
63.96	6.4612
64.18	15.4586
64.4	21.6217
64.62	16.7441
64.84	5.97264
65.06	13.8234
65.28	34.9748
65.5	28.8508
65.72	39.3169
65.94	20.8421
66.16	13.5038
66.38	40.0575
66.6	23.0414
66.82	4.48879
67.04	32.1771
67.26	3.59115
67.48	34.3277
67.7	12.9359
67.92	16.6157
68.14	31.2244
68.36	36.1353
68.58	38.8915
68.8	31.0638
69.02	18.2531
69.24	9.30238
69.46	13.8909
69.68	32.7648
69.9	40.2592
70.12	15.4183
70.34	21.5406
70.56	17.9733
70.78	7.74486
71	19.3705
71.22	14.9375
71.44	19.3124
71.66	17.8198
71.88	11.1677
72.1	13.5962
72.32	14.4046
72.54	29.7626
72.76	27.3559
72.98	28.05
73.2	11.3507
73.42	13.1079
73.64	5.69145
73.86	14.2801
74.08	12.366
74.3	17.0674
74.52	23.9742
74.74	27.2879
74.96	4.60534
75.18	21.1961
75.4	16.2895
75.62	3.55454
75.84	5.90221
76.06	33.0346
76.28	12.5537
76.5	16.7816
76.72	38.4496
76.94	16.5733
77.16	5.84332
77.38	10.84
77.6	2.52066
77.82	9.98239
78.04	9.73023
78.26	11.8543
78.48	20.9124
78.7	28.4074
78.92	43.6383
79.14	28.6424
79.36	24.4197
79.58	27.7726
79.8	21.6959
80.02	15.9392
80.24	20.3786
80.46	18.0375
80.68	27.7143
80.9	12.1943
81.12	21.6544
81.34	15.7924
81.56	24.6804
81.78	24.7251
82	3.48862
82.22	18.2679
82.44	30.9977
82.66	14.0208
82.88	28.1091
83.1	8.37978
83.32	4.21246
83.54	18.9133
83.76	5.63159
83.98	10.8408
84.2	14.9017
84.42	29.4148
84.64	27.7708
84.86	0.980865
85.08	17.0342
85.3	28.7049
85.52	28.03
85.74	5.07118
85.96	14.8443
86.18	9.60907
86.4	0.325714
86.62	37.6119
86.84	12.1577
87.06	10.7992
87.28	15.0757
87.5	5.92297
87.72	15.2896
87.94	26.1498
88.16	41.7923
88.38	14.0694
88.6	21.7783
88.82	27.1778
89.04	27.9796
89.26	18.0751
89.48	14.007
89.7	9.25825
89.92	31.8666
