Measurement: Powder, Xray Data XY Processed
Mineral: Chalcophanite
Rruff sample: R050605
Ideal chemistry: Zn^2+^Mn^4+^_3_O_7_3H_2_O
Locality: Mina Ojuela, Mapimi, Durango, Mexico
Source: University of Arizona Mineral Museum
Description: Druse of grayish black pseudo-octahedra
Diffraction sample description: Single crystal, powder profile is calculated
Cell parameters: a: 7.541(3) b: 7.541(3) c: 20.817(13) alpha: 90 beta: 90 gamma: 120 volume: 1025.1(1.5) crystal system: hexagonal
x	intensity
5	0
5.22	0
5.44	0
5.66	0
5.88	0
6.1	0
6.32	0
6.54	0
6.76	0
6.98	0
7.2	0
7.42	0
7.64	0
7.86	0
8.08	0
8.3	0
8.52	0
8.74	0
8.96	0
9.18	0
9.4	0
9.62	0
9.84	0
10.06	0
10.28	0
10.5	0
10.72	0
10.94	0
11.16	0
11.38	0
11.6	0
11.82	0
12.04	0
12.26	0
12.48	0
12.7	18.693
12.92	0
13.14	0
13.36	0
13.58	0
13.8	0
14.02	0
14.24	7.227
14.46	0
14.68	0
14.9	0
15.12	0
15.34	0
15.56	0
15.78	0
16	1.409
16.22	0
16.44	0
16.66	0
16.88	0
17.1	0
17.32	0
17.54	0
17.76	0
17.98	0
18.2	0
18.42	0
18.64	0
18.86	0
19.08	0
19.3	0
19.52	0
19.74	0
19.96	0
20.18	0
20.4	0
20.62	0
20.84	0
21.06	0
21.28	0
21.5	0
21.72	0.06
21.94	0.721
22.16	0
22.38	0
22.6	0
22.82	0
23.04	0
23.26	0
23.48	0.003
23.7	0.031
23.92	0
24.14	0
24.36	0
24.58	0
24.8	0
25.02	0
25.24	0.016
25.46	1.843
25.68	8.827
25.9	0
26.12	0
26.34	0
26.56	0
26.78	0.007
27	0.935
27.22	0
27.44	0
27.66	1.15
27.88	0
28.1	0
28.32	0
28.54	0.012
28.76	0.05
28.98	0
29.2	0
29.42	0
29.64	0
29.86	0
30.08	0
30.3	0
30.52	0
30.74	0
30.96	0
31.18	0
31.4	0
31.62	0
31.84	0
32.06	0
32.28	1.34
32.5	0.164
32.72	0
32.94	0
33.16	0.639
33.38	0
33.6	0
33.82	0
34.04	0
34.26	0
34.48	0
34.7	0
34.92	3.227
35.14	9.713
35.36	0
35.58	0
35.8	0
36.02	0
36.24	0
36.46	0
36.68	6.345
36.9	0
37.12	0.009
37.34	0.673
37.56	1.288
37.78	0
38	0
38.22	0
38.44	0
38.66	0
38.88	0.617
39.1	0.005
39.32	0
39.54	0
39.76	0
39.98	0
40.2	0
40.42	22.245
40.64	0.007
40.86	0
41.08	0.189
41.3	0
41.52	0.287
41.74	0
41.96	0
42.18	0
42.4	0
42.62	1.318
42.84	0
43.06	0
43.28	0
43.5	0.309
43.72	0.032
43.94	0
44.16	0
44.38	0.001
44.6	0.088
44.82	0
45.04	0
45.26	0
45.48	0
45.7	0.405
45.92	0.059
46.14	0.311
46.36	0
46.58	0
46.8	0
47.02	0
47.24	0
47.46	0
47.68	0
47.9	3.954
48.12	0.003
48.34	0.294
48.56	0
48.78	0
49	0
49.22	0
49.44	1.008
49.66	0
49.88	0
50.1	0.643
50.32	0.099
50.54	0.696
50.76	0.016
50.98	5.769
51.2	0.04
51.42	0
51.64	0
51.86	0
52.08	0.241
52.3	0.002
52.52	0
52.74	0.924
52.96	0.013
53.18	0
53.4	0.003
53.62	0.459
53.84	0
54.06	0
54.28	0
54.5	0
54.72	0
54.94	0
55.16	0.028
55.38	1.441
55.6	0.557
55.82	0
56.04	0.006
56.26	0.063
56.48	0.078
56.7	0.013
56.92	0
57.14	0.001
57.36	0
57.58	0
57.8	0.164
58.02	3.117
58.24	0.033
58.46	0.008
58.68	0.021
58.9	0
59.12	0
59.34	0.256
59.56	0.059
59.78	0.153
60	0.003
60.22	0
60.44	0
60.66	0
60.88	0.653
61.1	0.276
61.32	0
61.54	0
61.76	2.633
61.98	0.114
62.2	0.068
62.42	0.096
62.64	0.054
62.86	0.001
63.08	0
63.3	0
63.52	0.003
63.74	0.023
63.96	0
64.18	0.376
64.4	0.137
64.62	0.222
64.84	0.587
65.06	0.051
65.28	0.1
65.5	2.33
65.72	0.135
65.94	0
66.16	0.078
66.38	0.217
66.6	0
66.82	0
67.04	1.12
67.26	0.105
67.48	0.02
67.7	0.01
67.92	0.002
68.14	0
68.36	0
68.58	0.083
68.8	0.082
69.02	0
69.24	0.018
69.46	0.15
69.68	0.021
69.9	0.061
70.12	0.082
70.34	0.128
70.56	0.032
70.78	0
71	0
71.22	0
71.44	0.356
71.66	0.358
71.88	0
72.1	0.084
72.32	0.051
72.54	0.824
72.76	0.385
72.98	0.023
73.2	0
73.42	0
73.64	0.022
73.86	0.013
74.08	0
74.3	0.251
74.52	0.24
74.74	0.049
74.96	0.073
75.18	0.034
75.4	0
75.62	0.018
75.84	0.009
76.06	0
76.28	0.045
76.5	0.019
76.72	0
76.94	0.001
77.16	0.006
77.38	0.353
77.6	0.154
77.82	0.073
78.04	0.024
78.26	0
78.48	0
78.7	0.012
78.92	0.046
79.14	0.196
79.36	0.044
79.58	0.046
79.8	0.465
80.02	0.201
80.24	0.05
80.46	0.036
80.68	0
80.9	0
81.12	0.002
81.34	0.105
81.56	0.033
81.78	0
82	0.027
82.22	0.051
82.44	0.015
82.66	0.034
82.88	0.003
83.1	0
83.32	0
83.54	0.637
83.76	0.299
83.98	0.173
84.2	0.331
84.42	0.255
84.64	0.119
84.86	0.04
85.08	0.118
85.3	0.15
85.52	0
85.74	0
85.96	0.017
86.18	0.001
86.4	0.005
86.62	0
86.84	0
87.06	0.077
87.28	0.016
87.5	0.018
87.72	0.04
87.94	0
88.16	0.01
88.38	0.013
88.6	0.022
88.82	0.532
89.04	0.503
89.26	0.339
89.48	0.363
89.7	0.003
89.92	0
