Measurement: Powder, Xray Data XY Processed
Mineral: Chalcanthite
Rruff sample: R060102
Ideal chemistry: Cu^2+^S^6+^O_4_5H_2_O
Locality: synthetic
Source: Jacque Reynard, Greg Schmidt
Description: Blue bladed crystals
Diffraction sample description: Powder
Cell parameters: a: 6.1158(6) b: 10.7132(7) c: 5.9594(4) alpha: 82.353(6) beta: 107.336(7) gamma: 102.615(5) volume: 362.75(3) crystal system: triclinic
x	intensity
5	0
5.22	17.07
5.44	5.354
5.66	7.778
5.88	15.058
6.1	17.787
6.32	21.58
6.54	16.097
6.76	21.758
6.98	12.503
7.2	2.229
7.42	2.833
7.64	3.276
7.86	29.075
8.08	7.82
8.3	30.185
8.52	75.949
8.74	4.147
8.96	8.272
9.18	27.462
9.4	8.66
9.62	29.368
9.84	10.664
10.06	11.373
10.28	7.095
10.5	6.825
10.72	10.922
10.94	5.546
11.16	18.881
11.38	16.355
11.6	7.352
11.82	29.732
12.04	11.845
12.26	23.822
12.48	9.178
12.7	6.165
12.92	6.333
13.14	23.156
13.36	9.032
13.58	17.555
13.8	11.149
14.02	22.703
14.24	25.038
14.46	22.389
14.68	5.471
14.9	6.696
15.12	13.848
15.34	12.577
15.56	78.251
15.78	20.056
16	0.399
16.22	485.496
16.44	20.598
16.66	5.642
16.88	25.235
17.1	51.695
17.32	98.883
17.54	0.694
17.76	18.609
17.98	4.479
18.2	17
18.42	14.778
18.64	35.209
18.86	502.276
19.08	160.413
19.3	12.38
19.52	27.655
19.74	1.824
19.96	0.194
20.18	19.142
20.4	3.915
20.62	10.568
20.84	53.264
21.06	21.289
21.28	9.618
21.5	21.467
21.72	22.411
21.94	23.427
22.16	24.376
22.38	268.564
22.6	30.123
22.82	5.636
23.04	8.195
23.26	3.925
23.48	15.279
23.7	4.228
23.92	28.49
24.14	78.787
24.36	24.213
24.58	13.951
24.8	7.571
25.02	37.985
25.24	101.011
25.46	13.684
25.68	43.132
25.9	53.231
26.12	7.413
26.34	10.323
26.56	5.628
26.78	5.845
27	248.539
27.22	14.837
27.44	85.575
27.66	2.745
27.88	7.895
28.1	67.312
28.32	3.456
28.54	12.519
28.76	3.096
28.98	4.77
29.2	74.291
29.42	65.165
29.64	7.416
29.86	13.664
30.08	17.068
30.3	15.645
30.52	2.131
30.74	30.814
30.96	2.119
31.18	51.088
31.4	4.548
31.62	65.157
31.84	11.909
32.06	28.492
32.28	2.102
32.5	65.335
32.72	34.179
32.94	17.684
33.16	7.13
33.38	12.402
33.6	37.104
33.82	4.953
34.04	11.856
34.26	2.603
34.48	8.207
34.7	18.556
34.92	15.733
35.14	48.329
35.36	18.2
35.58	28.216
35.8	9.924
36.02	0.893
36.24	11.761
36.46	4.569
36.68	36.27
36.9	61.937
37.12	62.9
37.34	40.652
37.56	12.611
37.78	2.188
38	4.565
38.22	38.502
38.44	15.551
38.66	11.423
38.88	17.657
39.1	7.869
39.32	6.126
39.54	21.332
39.76	10.176
39.98	25.834
40.2	1.09
40.42	5.201
40.64	28.217
40.86	29.28
41.08	26.613
41.3	12.968
41.52	0.633
41.74	12.122
41.96	9.256
42.18	36.728
42.4	24.933
42.62	16.03
42.84	10.892
43.06	18.132
43.28	12.422
43.5	31.093
43.72	17.725
43.94	5.947
44.16	10.888
44.38	8.956
44.6	28.322
44.82	18.992
45.04	18.272
45.26	18.997
45.48	17.48
45.7	19.495
45.92	4.507
46.14	14.264
46.36	2.032
46.58	5.802
46.8	23.467
47.02	4.384
47.24	15.305
47.46	40.907
47.68	12.438
47.9	26.344
48.12	88.238
48.34	32.423
48.56	14.928
48.78	9.654
49	9.534
49.22	15.289
49.44	39.551
49.66	5.365
49.88	66.794
50.1	45.052
50.32	5.411
50.54	51.82
50.76	8.952
50.98	12.146
51.2	57.406
51.42	9.681
51.64	35.875
51.86	19.475
52.08	4.718
52.3	3.419
52.52	22.373
52.74	10.82
52.96	0.583
53.18	21.739
53.4	11.332
53.62	1.785
53.84	26.853
54.06	16.71
54.28	2.096
54.5	7.139
54.72	18.651
54.94	14.138
55.16	23.767
55.38	4.366
55.6	17.694
55.82	20.043
56.04	11.524
56.26	17.865
56.48	45.337
56.7	8.009
56.92	48.049
57.14	32.139
57.36	8.777
57.58	10.804
57.8	4.385
58.02	17.855
58.24	16.833
58.46	4.57
58.68	24.772
58.9	26.91
59.12	3.673
59.34	25.657
59.56	3.687
59.78	5.848
60	6.164
60.22	10.483
60.44	30.4
60.66	7.652
60.88	23.215
61.1	13.977
61.32	5.729
61.54	8.801
61.76	12.022
61.98	0.446
62.2	21.236
62.42	31.544
62.64	5.011
62.86	7.655
63.08	8.412
63.3	8.467
63.52	1.833
63.74	7.183
63.96	7.525
64.18	16.072
64.4	0.819
64.62	16.391
64.84	15.565
65.06	33.931
65.28	14.925
65.5	18.006
65.72	27.128
65.94	19.127
66.16	0.794
66.38	12.374
66.6	12.132
66.82	9.322
67.04	1.588
67.26	22.475
67.48	17.086
67.7	3.107
67.92	18.555
68.14	4.94
68.36	13.617
68.58	8.439
68.8	3.4
69.02	30.884
69.24	9.796
69.46	12.738
69.68	15.88
69.9	2.263
70.12	10.933
70.34	11.139
70.56	10.369
70.78	11.573
71	12.337
71.22	12.673
71.44	4.344
71.66	24.454
71.88	8.445
72.1	5.29
72.32	13.043
72.54	21.351
72.76	8.323
72.98	23.476
73.2	23.728
73.42	21.285
73.64	10.667
73.86	17.884
74.08	25.953
74.3	1.186
74.52	21.489
74.74	4.757
74.96	18.937
75.18	14.05
75.4	12.987
75.62	21.446
75.84	22.544
76.06	6.831
76.28	23.082
76.5	6.034
76.72	4.909
76.94	17.759
77.16	12.087
77.38	2.129
77.6	13.386
77.82	4.914
78.04	7.919
78.26	12.565
78.48	4.317
78.7	17.138
78.92	6.209
79.14	25.631
79.36	11.003
79.58	19.142
79.8	24.101
80.02	14.089
80.24	14.382
80.46	13.454
80.68	9.942
80.9	8.505
81.12	2.168
81.34	19.061
81.56	12.717
81.78	0.736
82	16.268
82.22	18.143
82.44	9.735
82.66	5.375
82.88	9.228
83.1	22.26
83.32	10.44
83.54	22.629
83.76	12.634
83.98	1.904
84.2	9.619
84.42	21.981
84.64	4.929
84.86	1.917
85.08	17.929
85.3	4.256
85.52	31.075
85.74	5.797
85.96	7.235
86.18	13.562
86.4	2.262
86.62	31.341
86.84	17.619
87.06	10.896
87.28	20.031
87.5	18.151
87.72	10.043
87.94	11.131
88.16	5.76
88.38	23.561
88.6	8.561
88.82	10.638
89.04	7.671
89.26	10.041
89.48	3.689
89.7	1.506
89.92	17.907
