Measurement: Powder, Xray Data XY Processed
Mineral: Chalcosiderite
Rruff sample: R060339
Ideal chemistry: Cu^2+^Fe^3+^_6_(PO_4_)_4_(OH)_8_4H_2_O
Locality: Gunheath Pit, St. Austell, Cornwall, England
Source: Michael Scott
Description: Sheafs of green platy crystals associated with white leucophosphite, R060338, and orange cyrilovite, R060504
Diffraction sample description: Single crystal, powder profile is calculated
Measured chemistry: Cu_1.00_(Fe^3+^_4.84_Al_1.16_)_Σ=6_(P_1.00_O_4_)_4_(OH)_8_·4H_2_O; H_2_O estimated by difference; (OH) by charge balance
Cell parameters: a: 7.68(2) b: 7.89(2) c: 10.23(3) alpha: 67.70(8) beta: 69.26(8) gamma: 65.02(9) volume: 505.71(1.0) crystal system: triclinic
x	intensity
5	0
5.22	0
5.44	0
5.66	0
5.88	0
6.1	0
6.32	0
6.54	0
6.76	0
6.98	0
7.2	0
7.42	0
7.64	0
7.86	0
8.08	0
8.3	0
8.52	0
8.74	0
8.96	0
9.18	0
9.4	0
9.62	10.699
9.84	0
10.06	0
10.28	0
10.5	0
10.72	0
10.94	0
11.16	0
11.38	0
11.6	0
11.82	0
12.04	0
12.26	0
12.48	0
12.7	0
12.92	1.658
13.14	0.485
13.36	0
13.58	0
13.8	32.989
14.02	0
14.24	0.366
14.46	0.007
14.68	0
14.9	0.103
15.12	0.002
15.34	0
15.56	0
15.78	0
16	0
16.22	0
16.44	0
16.66	0
16.88	0
17.1	0
17.32	0
17.54	0
17.76	0
17.98	19.015
18.2	0
18.42	0
18.64	1.518
18.86	0
19.08	0
19.3	13.245
19.52	0
19.74	0
19.96	0.002
20.18	0.103
20.4	0
20.62	1.182
20.84	0
21.06	5.546
21.28	0.853
21.5	0
21.72	0
21.94	0
22.16	0
22.38	0
22.6	1.878
22.82	0
23.04	0.001
23.26	1.605
23.48	13.992
23.7	0.084
23.92	0
24.14	0
24.36	0
24.58	0.521
24.8	1.989
25.02	2.348
25.24	6.136
25.46	0
25.68	0.036
25.9	0.282
26.12	1.357
26.34	32.343
26.56	0
26.78	0
27	0
27.22	0
27.44	1.137
27.66	0
27.88	7.817
28.1	0
28.32	0.015
28.54	1.03
28.76	0.016
28.98	1.838
29.2	0.886
29.42	0.2
29.64	69.481
29.86	0
30.08	5.962
30.3	1.836
30.52	0.074
30.74	0
30.96	0
31.18	0
31.4	0
31.62	1.445
31.84	0
32.06	0
32.28	0
32.5	0
32.72	0
32.94	0.507
33.16	4.002
33.38	0.018
33.6	0
33.82	0.652
34.04	0
34.26	0
34.48	2.199
34.7	2.773
34.92	0.013
35.14	2.009
35.36	0.77
35.58	1.466
35.8	0.277
36.02	0.962
36.24	0.641
36.46	6.225
36.68	1.599
36.9	0.781
37.12	0.115
37.34	0.684
37.56	6.338
37.78	3.828
38	0
38.22	0.651
38.44	7.636
38.66	0.054
38.88	2.071
39.1	2.475
39.32	0.798
39.54	2.661
39.76	0.001
39.98	1.917
40.2	0.815
40.42	0.037
40.64	0
40.86	0.019
41.08	0
41.3	0.246
41.52	2.165
41.74	7.611
41.96	0.636
42.18	15.912
42.4	1.537
42.62	0.002
42.84	0.032
43.06	0.323
43.28	0.902
43.5	7.33
43.72	0
43.94	0.204
44.16	0.081
44.38	0.245
44.6	0.189
44.82	0.056
45.04	2.096
45.26	1.756
45.48	0.273
45.7	0.259
45.92	0.237
46.14	4.692
46.36	2.4
46.58	0.006
46.8	0.167
47.02	0.037
47.24	0.44
47.46	3.674
47.68	0.373
47.9	0.38
48.12	4.564
48.34	0.435
48.56	3.604
48.78	1.931
49	6.78
49.22	1.146
49.44	3.75
49.66	0.23
49.88	0.28
50.1	0.512
50.32	0.442
50.54	0.151
50.76	0.131
50.98	0.586
51.2	1.237
51.42	0.66
51.64	2.678
51.86	0.489
52.08	1.289
52.3	0.53
52.52	0.185
52.74	0.39
52.96	1.051
53.18	0.554
53.4	0.171
53.62	0.453
53.84	0.008
54.06	1.168
54.28	2.236
54.5	0.012
54.72	2.774
54.94	0.964
55.16	0.082
55.38	2.058
55.6	0.553
55.82	1.678
56.04	0.655
56.26	3.241
56.48	0.685
56.7	1.011
56.92	2.808
57.14	0.842
57.36	1.792
57.58	2.45
57.8	1.72
58.02	1.858
58.24	0.009
58.46	2.037
58.68	0.201
58.9	0.397
59.12	0.343
59.34	0.008
59.56	0.848
59.78	4.087
60	7.664
60.22	1.284
60.44	2.765
60.66	2.477
60.88	2.767
61.1	0.364
61.32	0.619
61.54	3.936
61.76	1.594
61.98	0.677
62.2	0.063
62.42	0.071
62.64	1.713
62.86	3.75
63.08	3.226
63.3	1.343
63.52	0.452
63.74	0.368
63.96	0.237
64.18	0.07
64.4	0.943
64.62	2.996
64.84	1.035
65.06	0.977
65.28	1.487
65.5	0.67
65.72	0.313
65.94	1.302
66.16	0.691
66.38	0.163
66.6	2.429
66.82	2.378
67.04	0.27
67.26	0.222
67.48	0.087
67.7	1.162
67.92	1.861
68.14	0.412
68.36	0.662
68.58	0.357
68.8	0.693
69.02	0.57
69.24	0.558
69.46	0.858
69.68	0.481
69.9	0.328
70.12	0.124
70.34	0.059
70.56	0.031
70.78	0.037
71	0.258
71.22	0.349
71.44	0.094
71.66	0.335
71.88	0.261
72.1	0.264
72.32	0.922
72.54	1.288
72.76	0.645
72.98	0.533
73.2	0.892
73.42	0.631
73.64	0.167
73.86	0.063
74.08	0.371
74.3	0.261
74.52	0.149
74.74	1.199
74.96	1.017
75.18	0.604
75.4	0.405
75.62	0.212
75.84	0.258
76.06	0.588
76.28	1.577
76.5	0.722
76.72	0.772
76.94	0.531
77.16	0.198
77.38	0.518
77.6	0.719
77.82	0.315
78.04	0.325
78.26	0.169
78.48	0.021
78.7	0.965
78.92	0.481
79.14	0.165
79.36	0.585
79.58	0.337
79.8	0.011
80.02	0.378
80.24	0.401
80.46	0.21
80.68	0.103
80.9	0.107
81.12	0.133
81.34	0.112
81.56	0.599
81.78	0.819
82	0.505
82.22	0.594
82.44	0.705
82.66	0.325
82.88	0.477
83.1	0.533
83.32	0.135
83.54	0.287
83.76	0.032
83.98	0.664
84.2	0.308
84.42	0.158
84.64	0.239
84.86	0.211
85.08	0.219
85.3	0.02
85.52	0.29
85.74	0.388
85.96	0.287
86.18	0.388
86.4	1.992
86.62	0.564
86.84	0.075
87.06	0.012
87.28	0.178
87.5	0.539
87.72	0.319
87.94	0.16
88.16	0.217
88.38	0.653
88.6	0.355
88.82	0.074
89.04	0.168
89.26	0.165
89.48	0.091
89.7	0.069
89.92	0.102
