Measurement: Powder, Xray Data XY Processed
Mineral: Chalcopyrite
Rruff sample: R050559
Ideal chemistry: Cu^1+^Fe^3+^S^2-^_2_
Locality: Recuerdo Vein, Haunzala mine, Huallanca District, Dos de Mayo Province, Huanuco Department, Peru
Source: Dave Bunk Minerals
Description: Brass-yellow striated crystals
Diffraction sample description: Powder
Measured chemistry: Cu^1+^_1.00_Fe^3+^_1.00_S_2.00_
Cell parameters: a: 5.29010(8) b: 5.29010(8) c: 10.4235(3) alpha: 90. beta: 90. gamma: 90. volume: 291.704(8) crystal system: tetragonal
x	intensity
5	0
5.22	6.022
5.44	6.589
5.66	29.34
5.88	14.926
6.1	28.93
6.32	18.095
6.54	29.278
6.76	18.976
6.98	13.421
7.2	4.524
7.42	4.387
7.64	6.35
7.86	1.232
8.08	30.996
8.3	16.657
8.52	33.292
8.74	23.432
8.96	3.609
9.18	15.83
9.4	1.824
9.62	33.145
9.84	20.228
10.06	17.113
10.28	43.51
10.5	21.892
10.72	25.122
10.94	20.772
11.16	10.016
11.38	27.948
11.6	2.23
11.82	13.089
12.04	13.116
12.26	23.342
12.48	38.468
12.7	8.833
12.92	28.057
13.14	17.457
13.36	9.764
13.58	45.891
13.8	15.715
14.02	28.852
14.24	22.109
14.46	18.191
14.68	9.837
14.9	20.665
15.12	2.452
15.34	23.509
15.56	26.373
15.78	21.762
16	6.788
16.22	22.187
16.44	25.532
16.66	21.76
16.88	27.164
17.1	23.013
17.32	5
17.54	7.704
17.76	10.587
17.98	26.249
18.2	22.538
18.42	29.395
18.64	21.464
18.86	31.738
19.08	6.144
19.3	1.992
19.52	1.411
19.74	0.63
19.96	29.118
20.18	8.949
20.4	1.83
20.62	30.617
20.84	15.288
21.06	12.442
21.28	13.455
21.5	16.021
21.72	7.417
21.94	14.721
22.16	34.926
22.38	12.944
22.6	7.15
22.82	28.046
23.04	24.989
23.26	3.058
23.48	5.172
23.7	22.653
23.92	18.728
24.14	27.912
24.36	19.588
24.58	10.772
24.8	9.179
25.02	28.652
25.24	13.484
25.46	29.384
25.68	34.524
25.9	25.398
26.12	4.986
26.34	28.73
26.56	16.005
26.78	9.053
27	5.007
27.22	20.83
27.44	30.667
27.66	18.782
27.88	18.467
28.1	23.95
28.32	18.016
28.54	22.037
28.76	14.608
28.98	12.5
29.2	43.699
29.42	1035.12
29.64	26.488
29.86	11.375
30.08	8.542
30.3	39.069
30.52	26.821
30.74	4.125
30.96	28.541
31.18	0.554
31.4	38.091
31.62	1.442
31.84	23.083
32.06	16.359
32.28	0.409
32.5	23.754
32.72	21.613
32.94	22.506
33.16	38.966
33.38	13.911
33.6	35.309
33.82	11.658
34.04	23.726
34.26	9.404
34.48	46.458
34.7	12.055
34.92	21.944
35.14	17.155
35.36	4.328
35.58	26.399
35.8	0.925
36.02	29.22
36.24	13.8
36.46	29.076
36.68	4.406
36.9	35.83
37.12	33.752
37.34	27.984
37.56	39.011
37.78	16.017
38	11.689
38.22	4.661
38.44	2.697
38.66	4.925
38.88	14.556
39.1	7.851
39.32	15.831
39.54	24.298
39.76	8.567
39.98	3.448
40.2	20.12
40.42	22.862
40.64	26.516
40.86	18.637
41.08	28.733
41.3	21.61
41.52	5.006
41.74	19.452
41.96	15.225
42.18	11.766
42.4	34.839
42.62	35.221
42.84	4.597
43.06	3.658
43.28	26.311
43.5	29.637
43.72	11.027
43.94	20.16
44.16	16.237
44.38	2.608
44.6	16.019
44.82	9.524
45.04	9.027
45.26	2.22
45.48	12.193
45.7	27.841
45.92	18.872
46.14	20.249
46.36	1.816
46.58	13.499
46.8	19.821
47.02	19.508
47.24	22.725
47.46	19.335
47.68	11.037
47.9	26.111
48.12	14.664
48.34	22.832
48.56	57.98
48.78	79.451
49	140.75
49.22	168.653
49.44	32.009
49.66	17.653
49.88	6.885
50.1	12.987
50.32	11.501
50.54	32.318
50.76	25.185
50.98	16.131
51.2	15.958
51.42	15.361
51.64	19.054
51.86	11.742
52.08	42.732
52.3	28.395
52.52	23.551
52.74	12.469
52.96	14.015
53.18	15.175
53.4	32.864
53.62	7.48
53.84	21.48
54.06	35.789
54.28	11.913
54.5	9.624
54.72	13.735
54.94	33.843
55.16	3.359
55.38	21.71
55.6	4.029
55.82	18.817
56.04	7.467
56.26	2.44
56.48	32.787
56.7	2.187
56.92	17.338
57.14	6.846
57.36	42.013
57.58	24.047
57.8	81.11
58.02	166.626
58.24	28.185
58.46	25.523
58.68	43.712
58.9	15.882
59.12	17.934
59.34	23.731
59.56	23.405
59.78	7.16
60	25.945
60.22	4.049
60.44	21.937
60.66	19.158
60.88	16.105
61.1	23.648
61.32	1.294
61.54	37.176
61.76	17.532
61.98	20.853
62.2	26.057
62.42	17.195
62.64	11.593
62.86	13.838
63.08	15.608
63.3	33.895
63.52	25.946
63.74	23.109
63.96	17.254
64.18	12.219
64.4	12.287
64.62	5.904
64.84	12.919
65.06	29
65.28	23.107
65.5	5.503
65.72	12.504
65.94	8.198
66.16	8.524
66.38	28.397
66.6	24.358
66.82	31.549
67.04	32.911
67.26	12.62
67.48	19.754
67.7	29.715
67.92	13.181
68.14	9.963
68.36	23.4
68.58	22.772
68.8	13.766
69.02	19.874
69.24	7.335
69.46	1.344
69.68	3.75
69.9	4.542
70.12	10.172
70.34	22.942
70.56	21.89
70.78	14.808
71	0.88
71.22	45.04
71.44	37.867
71.66	15.878
71.88	9.349
72.1	1.425
72.32	2.894
72.54	46.894
72.76	8.938
72.98	1.916
73.2	16.009
73.42	8.603
73.64	9.669
73.86	16.625
74.08	19.036
74.3	38.754
74.52	17.087
74.74	4.319
74.96	19.438
75.18	14.186
75.4	12.651
75.62	0.142
75.84	24.466
76.06	20.892
76.28	9.875
76.5	25.959
76.72	1.877
76.94	26.285
77.16	26.759
77.38	23.714
77.6	4.556
77.82	30.458
78.04	26.558
78.26	38.849
78.48	32.822
78.7	14.064
78.92	30.917
79.14	19.345
79.36	29.226
79.58	26.278
79.8	52.156
80.02	17.455
80.24	30.092
80.46	36.452
80.68	7.038
80.9	33.249
81.12	5.178
81.34	3.859
81.56	1.378
81.78	12.476
82	6.943
82.22	23.51
82.44	0.67
82.66	1.057
82.88	9.293
83.1	4.88
83.32	5.173
83.54	46.113
83.76	14.676
83.98	27.587
84.2	25.39
84.42	24.211
84.64	17.81
84.86	26.76
85.08	32.171
85.3	13.682
85.52	13.146
85.74	2.6
85.96	7.105
86.18	38.574
86.4	2.572
86.62	20.447
86.84	4.088
87.06	33.609
87.28	25.733
87.5	16.931
87.72	26.363
87.94	14.795
88.16	28.857
88.38	23.02
88.6	7.398
88.82	28.483
89.04	10.484
89.26	25.581
89.48	14.581
89.7	10.902
89.92	32.095
