Measurement: Powder, Xray Data XY Processed
Mineral: Chamosite
Rruff sample: R060188
Ideal chemistry: Fe^2+^_5_Al(AlSi_3_)O_10_(OH)_8_
Locality: Slesse Creek, Chilliwack, British Columbia, Canada
Source: Lloyd Twaites
Description: Brown hexagonal tablets with curved prism faces
Diffraction sample description: Powder
Measured chemistry: (Fe^2+^_2.53_Mg_2.15_Al_0.30_Mn_0.02_)_Î£=5_Al_1.00_(Si_2.70_Al_1.30_)O_10_(OH)_8_
Cell parameters: a: 5.675(4) b: 8.987(1) c: 28.750(3) alpha: 90. beta: 100.32(3) gamma: 90. volume: 1442.6(9) crystal system: monoclinic
x	intensity
5	0
5.22	14.157
5.44	23.43
5.66	17.431
5.88	26.68
6.1	66.72
6.32	169.798
6.54	5.123
6.76	9.343
6.98	10.409
7.2	21.575
7.42	25.419
7.64	18.043
7.86	9.444
8.08	47.043
8.3	14.803
8.52	16.009
8.74	14.724
8.96	10.306
9.18	21.601
9.4	14.648
9.62	9.481
9.84	23.721
10.06	19.847
10.28	5.936
10.5	11.076
10.72	20.839
10.94	23.749
11.16	19.448
11.38	47.515
11.6	6.462
11.82	25.984
12.04	22.719
12.26	7.239
12.48	162.12
12.7	58.576
12.92	11.309
13.14	10.941
13.36	17.345
13.58	6.605
13.8	2.426
14.02	5.388
14.24	32.12
14.46	27.135
14.68	24.642
14.9	17.921
15.12	10.956
15.34	4.74
15.56	10.711
15.78	15.87
16	8.938
16.22	23.09
16.44	18.67
16.66	13.861
16.88	2.306
17.1	22.096
17.32	10.434
17.54	16.882
17.76	14.519
17.98	14.997
18.2	0.61
18.42	8.258
18.64	30.405
18.86	149.198
19.08	10.309
19.3	4.839
19.52	14.038
19.74	4.594
19.96	15.816
20.18	18.831
20.4	16.859
20.62	7.17
20.84	14.61
21.06	1.52
21.28	0.167
21.5	26.278
21.72	29.784
21.94	9.046
22.16	27.934
22.38	16.056
22.6	10.301
22.82	30.61
23.04	11.016
23.26	18.809
23.48	1.078
23.7	33.689
23.92	0.7
24.14	6.113
24.36	14.244
24.58	9.765
24.8	2.719
25.02	33.241
25.24	264.744
25.46	25.398
25.68	35.327
25.9	12.75
26.12	0.866
26.34	20.466
26.56	16.177
26.78	39.064
27	27.19
27.22	5.427
27.44	23.77
27.66	17.921
27.88	13.211
28.1	7.994
28.32	2.456
28.54	26.989
28.76	8.854
28.98	15.883
29.2	12.386
29.42	21.703
29.64	17.621
29.86	13.556
30.08	9.948
30.3	24.503
30.52	2.035
30.74	9.937
30.96	10.787
31.18	11.675
31.4	21.448
31.62	54.557
31.84	26.936
32.06	24.511
32.28	4.744
32.5	9.662
32.72	13.719
32.94	22.435
33.16	20.277
33.38	16.369
33.6	17.847
33.82	17.56
34.04	15.938
34.26	2.977
34.48	17.424
34.7	27.095
34.92	13.336
35.14	32.349
35.36	6.336
35.58	9.219
35.8	24.05
36.02	22.015
36.24	3.99
36.46	9.249
36.68	25.903
36.9	9.705
37.12	9.328
37.34	2.958
37.56	32.163
37.78	6.279
38	13.759
38.22	15.455
38.44	10.029
38.66	19.176
38.88	14.403
39.1	6.793
39.32	26.887
39.54	25.909
39.76	34.309
39.98	16.194
40.2	20.57
40.42	0.218
40.64	13.742
40.86	12.843
41.08	11.436
41.3	10.627
41.52	5.727
41.74	25.292
41.96	14.412
42.18	5.353
42.4	36.423
42.62	21.184
42.84	7.05
43.06	33.917
43.28	1.288
43.5	20.71
43.72	15.232
43.94	20.754
44.16	13.872
44.38	9.505
44.6	1.088
44.82	35.804
45.04	43.959
45.26	43.533
45.48	41.267
45.7	25.964
45.92	16.032
46.14	8.495
46.36	17.204
46.58	20.768
46.8	26.065
47.02	3.237
47.24	8.814
47.46	12.578
47.68	6.594
47.9	19.443
48.12	37.539
48.34	38.521
48.56	22.127
48.78	23.614
49	6.38
49.22	19.078
49.44	9.522
49.66	14.572
49.88	1.296
50.1	17.927
50.32	14.851
50.54	1.045
50.76	19.771
50.98	18.742
51.2	1.043
51.42	12.601
51.64	10.736
51.86	14.892
52.08	21.062
52.3	21.287
52.52	18.078
52.74	26.028
52.96	36.275
53.18	2.012
53.4	28.222
53.62	27.864
53.84	9.485
54.06	18.458
54.28	7.822
54.5	22.976
54.72	17.434
54.94	16.259
55.16	3.735
55.38	23.455
55.6	4.168
55.82	13.471
56.04	27.696
56.26	24.435
56.48	27.595
56.7	22.078
56.92	15.47
57.14	27.718
57.36	8.677
57.58	31.862
57.8	0.512
58.02	20.473
58.24	19.656
58.46	6.143
58.68	27.753
58.9	54.031
59.12	25.313
59.34	3.523
59.56	44.001
59.78	39.942
60	17.168
60.22	25.359
60.44	27.259
60.66	25.718
60.88	7.247
61.1	21.006
61.32	22.903
61.54	11.549
61.76	9.389
61.98	6.793
62.2	7.401
62.42	7.298
62.64	29.768
62.86	1.969
63.08	29.472
63.3	5.242
63.52	36.711
63.74	11.403
63.96	21.217
64.18	15.806
64.4	29.538
64.62	19.259
64.84	0.272
65.06	4.76
65.28	14.284
65.5	16.338
65.72	19.143
65.94	28.781
66.16	17.455
66.38	19.437
66.6	13.503
66.82	25.794
67.04	21.398
67.26	19.812
67.48	18.942
67.7	18.142
67.92	16.283
68.14	24.678
68.36	26.277
68.58	7.665
68.8	15.037
69.02	4.901
69.24	11.878
69.46	25.708
69.68	0.774
69.9	1.251
70.12	12.95
70.34	1.808
70.56	23.831
70.78	21.85
71	19.168
71.22	9.079
71.44	10.753
71.66	8.07
71.88	32.122
72.1	26.991
72.32	21.418
72.54	27.111
72.76	35.877
72.98	3.091
73.2	26.711
73.42	6.596
73.64	15.471
73.86	14.986
74.08	24.076
74.3	12.115
74.52	6.7
74.74	1.487
74.96	10.673
75.18	5.498
75.4	23.931
75.62	1.477
75.84	15.107
76.06	2.859
76.28	22.129
76.5	9.956
76.72	7.048
76.94	4.029
77.16	13.882
77.38	7.729
77.6	3.193
77.82	15.832
78.04	16.687
78.26	22.142
78.48	18.19
78.7	13.307
78.92	1.323
79.14	12.402
79.36	11.009
79.58	11.143
79.8	23.091
80.02	3.911
80.24	18.997
80.46	22.566
80.68	17.201
80.9	13.324
81.12	22.606
81.34	22.353
81.56	24.13
81.78	12.05
82	23.278
82.22	15.975
82.44	19.012
82.66	29.771
82.88	11.686
83.1	17.903
83.32	14.827
83.54	14.38
83.76	13.374
83.98	8.412
84.2	10.956
84.42	9.465
84.64	6.67
84.86	10.78
85.08	1.774
85.3	12.747
85.52	28.479
85.74	9.541
85.96	21.054
86.18	31.272
86.4	12.231
86.62	33.911
86.84	19.079
87.06	14.24
87.28	0.486
87.5	20.042
87.72	0.959
87.94	18.921
88.16	31.083
88.38	9.243
88.6	13.684
88.82	4.749
89.04	18.033
89.26	21.244
89.48	22.353
89.7	16.012
89.92	8.34
