Measurement: Powder, Xray Data XY Processed
Mineral: Chambersite
Rruff sample: R060425
Ideal chemistry: Mn^2+^_3_B_7_O_13_Cl
Locality: Venice Dome, Plaquemines Parish, Louisiana, USA
Source: Michael Scott
Description: Brown pseudotetrahedra
Diffraction sample description: Powder
Measured chemistry: (Mn_2.93_Fe^2+^_0.05_Mg_0.02_)_Î£=3_B_7.00_O_13_Cl_1.00_ ; B not measured but estimated by difference and stoichiometry.
Cell parameters: a: 8.6815(1) b: 8.6853(4) c: 12.2792(2) alpha: 90 beta: 90 gamma: 90 volume: 925.87(4) crystal system: orthorhombic
x	intensity
5	0
5.22	13.462
5.44	6.772
5.66	6.585
5.88	10.397
6.1	16.974
6.32	4.036
6.54	15.078
6.76	18.051
6.98	8.007
7.2	16.658
7.42	6.136
7.64	17.668
7.86	5.376
8.08	22.531
8.3	0.247
8.52	1.121
8.74	13.612
8.96	11.615
9.18	27.977
9.4	24.068
9.62	11.248
9.84	30.045
10.06	13.166
10.28	4.219
10.5	5.683
10.72	8.986
10.94	8.784
11.16	12.429
11.38	14.089
11.6	5.671
11.82	13.526
12.04	9.299
12.26	7.255
12.48	10.422
12.7	13.981
12.92	17.69
13.14	4.372
13.36	13.404
13.58	11.425
13.8	1.464
14.02	15.426
14.24	2.329
14.46	20.516
14.68	9.121
14.9	2.142
15.12	10.735
15.34	4.803
15.56	3.315
15.78	21.635
16	23.886
16.22	7.622
16.44	10.192
16.66	12.821
16.88	14.075
17.1	19.779
17.32	10.61
17.54	6.505
17.76	11.809
17.98	3.25
18.2	7.883
18.42	1.85
18.64	7.172
18.86	18.767
19.08	0.862
19.3	5.665
19.52	22.438
19.74	8.198
19.96	8.363
20.18	18.057
20.4	28.781
20.62	13.301
20.84	12.273
21.06	13.438
21.28	9.31
21.5	16.556
21.72	19.609
21.94	29.801
22.16	5.778
22.38	3.316
22.6	7.339
22.82	16.333
23.04	2.384
23.26	6.181
23.48	16.465
23.7	7.779
23.92	10.42
24.14	15.275
24.36	6.945
24.58	0.889
24.8	18.793
25.02	12.616
25.24	83.29
25.46	18.079
25.68	8.923
25.9	7.507
26.12	12.184
26.34	13.494
26.56	10.775
26.78	8.737
27	9.811
27.22	20.44
27.44	6.164
27.66	5.672
27.88	12.055
28.1	5.76
28.32	7.983
28.54	16.427
28.76	6.001
28.98	14.302
29.2	177.414
29.42	7.343
29.64	1.433
29.86	12.795
30.08	5.154
30.3	7.925
30.52	13.34
30.74	9.164
30.96	9.062
31.18	14.125
31.4	7.019
31.62	2.887
31.84	6.886
32.06	23.566
32.28	2.321
32.5	18.858
32.72	105.027
32.94	1.514
33.16	19.999
33.38	11.061
33.6	21.878
33.82	14.205
34.04	14.627
34.26	12.978
34.48	17.22
34.7	11.67
34.92	24.372
35.14	18.445
35.36	2.597
35.58	16.527
35.8	30.217
36.02	11.424
36.24	9.954
36.46	6.783
36.68	13.918
36.9	18.945
37.12	13.936
37.34	17.176
37.56	16.264
37.78	23.037
38	8.102
38.22	11.046
38.44	20.966
38.66	16.754
38.88	6.157
39.1	17.854
39.32	12.022
39.54	34.84
39.76	11.583
39.98	3.712
40.2	8.872
40.42	16.558
40.64	20.147
40.86	2.808
41.08	21.952
41.3	9.855
41.52	11.972
41.74	93.801
41.96	8.959
42.18	18.409
42.4	8.579
42.62	3.64
42.84	1.177
43.06	24.951
43.28	8.386
43.5	24.152
43.72	67.099
43.94	6.143
44.16	1.66
44.38	11.278
44.6	20.256
44.82	7.949
45.04	26.562
45.26	7.052
45.48	17.398
45.7	8.172
45.92	11.622
46.14	13.709
46.36	6.43
46.58	17.547
46.8	2.296
47.02	12.418
47.24	0.026
47.46	14.709
47.68	8.785
47.9	13.09
48.12	10.598
48.34	16.657
48.56	4.86
48.78	21.848
49	23.741
49.22	99.765
49.44	2.995
49.66	20.982
49.88	19.432
50.1	1.693
50.32	13.001
50.54	7.059
50.76	2.096
50.98	21.995
51.2	8.19
51.42	18.341
51.64	34.938
51.86	25.483
52.08	14.449
52.3	11.889
52.52	5.856
52.74	10.683
52.96	4.429
53.18	21.64
53.4	15.396
53.62	31.253
53.84	41.865
54.06	14.461
54.28	15.546
54.5	20.664
54.72	5.681
54.94	5.699
55.16	1.935
55.38	10.999
55.6	4.374
55.82	9.018
56.04	26.041
56.26	1.694
56.48	12.929
56.7	23.884
56.92	5.206
57.14	8.306
57.36	18.664
57.58	14.599
57.8	15.866
58.02	16.449
58.24	12.088
58.46	9.166
58.68	18.678
58.9	20.831
59.12	12.947
59.34	14.214
59.56	3.571
59.78	15.259
60	10.359
60.22	17.187
60.44	5.426
60.66	11.19
60.88	3.749
61.1	8.086
61.32	15.79
61.54	10.514
61.76	0.655
61.98	9.245
62.2	4.946
62.42	11.778
62.64	27.572
62.86	22.018
63.08	22.314
63.3	13.61
63.52	5.138
63.74	26.671
63.96	21.209
64.18	17.817
64.4	15.222
64.62	20.483
64.84	6.521
65.06	26.162
65.28	14.834
65.5	21.965
65.72	19.506
65.94	15.464
66.16	8.238
66.38	41.939
66.6	16.576
66.82	19.841
67.04	6.042
67.26	3.97
67.48	6.028
67.7	0.073
67.92	2.716
68.14	3.025
68.36	28.36
68.58	33.988
68.8	19.604
69.02	10.376
69.24	12.94
69.46	10.663
69.68	8.428
69.9	17.287
70.12	4.403
70.34	4.278
70.56	9.986
70.78	13.029
71	22.484
71.22	12.085
71.44	10.398
71.66	12.238
71.88	16.173
72.1	0.763
72.32	18.623
72.54	16.703
72.76	15.41
72.98	12.105
73.2	13.565
73.42	15.519
73.64	14.715
73.86	16.475
74.08	18.884
74.3	5.089
74.52	9.317
74.74	6.158
74.96	12.038
75.18	10.212
75.4	13.486
75.62	19.176
75.84	28.15
76.06	34.462
76.28	6.117
76.5	24.956
76.72	14.764
76.94	9.836
77.16	3.638
77.38	4.475
77.6	10.369
77.82	15.952
78.04	29.193
78.26	21.048
78.48	19.936
78.7	19.292
78.92	9.586
79.14	8.15
79.36	10.244
79.58	0.431
79.8	21.006
80.02	14.476
80.24	2.923
80.46	29.342
80.68	11.57
80.9	30.774
81.12	9.61
81.34	13.351
81.56	2.671
81.78	10.637
82	2.603
82.22	23.042
82.44	1.42
82.66	16.136
82.88	12.135
83.1	0.06
83.32	18.535
83.54	18.888
83.76	7.737
83.98	9.672
84.2	1.637
84.42	10.819
84.64	15.71
84.86	18.036
85.08	26.819
85.3	10.009
85.52	12.096
85.74	18.175
85.96	12.32
86.18	0.65
86.4	14.849
86.62	6.028
86.84	3.811
87.06	15.239
87.28	25.792
87.5	11.144
87.72	10.727
87.94	16.875
88.16	0.682
88.38	2.659
88.6	6.693
88.82	19.652
89.04	11.035
89.26	14.775
89.48	3.619
89.7	15.743
89.92	21.67
