Measurement: Powder, Xray Data XY Processed
Mineral: Charoite
Rruff sample: R060557
Ideal chemistry: (K,Sr,Ba,Mn^2+^)_15-16_(Ca,Na)_32_Si_70_(O,OH)_180_(OH,F)_4_nH_2_O
Locality: Russia
Source: Gemological Institute of America
Description: Purple massive
Diffraction sample description: Powder
Measured chemistry: (K_15.13_Ba_1.37_Sr_0.57_Mn_0.20_Fe_0.02_)_Σ=17.29_(Ca_26.56_Na_2.60_)_Σ=29.16_(Si_69.97_Al_0.03_)_Σ=70.00_(O_179.73_F_0.27_)_Σ=180.00_F_4.05_·16H_2_O ; lighter phase : K_1.00_Al_1.00_Si_3.00_O_8_ darker phase
Cell parameters: a: 31.971(7) b: 19.668(3) c: 7.1529(8) alpha: 90 beta: 90 gamma: 90 volume: 4490(1) crystal system: orthorhombic
x	intensity
5	0
5.22	11.1679
5.44	9.86758
5.66	8.57994
5.88	21.6824
6.1	22.0583
6.32	10.7696
6.54	10.2689
6.76	12.9701
6.98	16.013
7.2	64.898
7.42	3.6467
7.64	9.3686
7.86	9.21513
8.08	7.91632
8.3	2.50101
8.52	8.125
8.74	7.62085
8.96	11.827
9.18	0.343266
9.4	8.02667
9.62	10.6358
9.84	5.01801
10.06	5.48483
10.28	2.83779
10.5	6.19239
10.72	0.812669
10.94	0.075509
11.16	9.34271
11.38	4.52527
11.6	6.75465
11.82	5.98226
12.04	5.96681
12.26	4.81873
12.48	8.9483
12.7	6.99336
12.92	5.97402
13.14	6.85707
13.36	2.8249
13.58	5.81678
13.8	6.94781
14.02	5.7474
14.24	2.81072
14.46	5.81945
14.68	15.863
14.9	7.81412
15.12	8.94504
15.34	2.07688
15.56	0.016154
15.78	4.27979
16	4.30552
16.22	3.17091
16.44	3.17032
16.66	6.48668
16.88	5.51156
17.1	1.54224
17.32	7.523
17.54	7.78164
17.76	6.75924
17.98	4.85482
18.2	14.6629
18.42	3.66645
18.64	4.77755
18.86	0.985012
19.08	6.63967
19.3	1.62752
19.52	5.76545
19.74	3.58941
19.96	10.529
20.18	2.6075
20.4	3.56403
20.62	4.01898
20.84	8.21777
21.06	22.1091
21.28	5.88425
21.5	8.87413
21.72	0.218704
21.94	2.62026
22.16	7.42858
22.38	7.17021
22.6	2.01468
22.82	24.0242
23.04	12.5277
23.26	5.28959
23.48	6.23028
23.7	1.03566
23.92	3.92114
24.14	2.88313
24.36	2.62589
24.58	1.38719
24.8	5.16925
25.02	5.00062
25.24	7.09293
25.46	12.4988
25.68	16.0825
25.9	6.83236
26.12	4.39951
26.34	3.30348
26.56	26.0123
26.78	22.5104
27	5.37593
27.22	24.2411
27.44	44.5264
27.66	15.1188
27.88	41.1506
28.1	0.066899
28.32	1.85204
28.54	68.5099
28.76	11.0492
28.98	19.4264
29.2	0.176674
29.42	25.1594
29.64	7.2695
29.86	6.51783
30.08	30.7877
30.3	4.12751
30.52	4.91913
30.74	19.0009
30.96	3.70406
31.18	13.5948
31.4	3.85741
31.62	0.370867
31.84	4.41899
32.06	23.4123
32.28	4.53549
32.5	7.46714
32.72	1.14273
32.94	24.684
33.16	13.7094
33.38	7.67052
33.6	13.6327
33.82	6.40975
34.04	17.0159
34.26	3.26911
34.48	5.01315
34.7	3.11568
34.92	15.3608
35.14	13.7759
35.36	6.33931
35.58	4.53201
35.8	9.77587
36.02	8.17993
36.24	5.51522
36.46	4.48853
36.68	2.52673
36.9	14.4558
37.12	0.505873
37.34	6.51666
37.56	17.3764
37.78	7.14436
38	5.14266
38.22	5.29326
38.44	5.28677
38.66	7.27506
38.88	11.4219
39.1	2.55162
39.32	11.4431
39.54	3.50874
39.76	5.08857
39.98	7.07282
40.2	8.00773
40.42	5.05407
40.64	6.78294
40.86	3.44354
41.08	6.20566
41.3	4.75926
41.52	6.36307
41.74	15.3718
41.96	21.5597
42.18	6.02755
42.4	13.1581
42.62	15.2134
42.84	14.4652
43.06	11.6686
43.28	4.76695
43.5	8.06926
43.72	13.3502
43.94	4.50784
44.16	2.4697
44.38	7.19482
44.6	3.55019
44.82	1.85282
45.04	4.89238
45.26	9.61525
45.48	2.83127
45.7	4.92962
45.92	4.84219
46.14	20.8388
46.36	8.87813
46.58	2.04544
46.8	3.11197
47.02	6.03552
47.24	12.1498
47.46	7.24888
47.68	1.45996
47.9	1.25072
48.12	9.35607
48.34	1.53379
48.56	3.72288
48.78	1.15575
49	5.0152
49.22	0.896349
49.44	6.51226
49.66	1.20051
49.88	2.00142
50.1	3.6636
50.32	1.43972
50.54	10.1195
50.76	4.89789
50.98	5.73149
51.2	14.5083
51.42	9.60838
51.64	8.70159
51.86	5.97475
52.08	2.12727
52.3	0.73934
52.52	3.41559
52.74	6.55216
52.96	8.78847
53.18	7.89776
53.4	1.85012
53.62	6.5907
53.84	3.68888
54.06	4.73894
54.28	4.38535
54.5	6.55
54.72	3.65167
54.94	6.66104
55.16	7.75374
55.38	6.69474
55.6	2.89776
55.82	6.01579
56.04	15.2762
56.26	0.815407
56.48	14.0118
56.7	1.97994
56.92	3.74955
57.14	8.52634
57.36	3.34901
57.58	6.11865
57.8	17.9654
58.02	7.73672
58.24	7.75984
58.46	14.7209
58.68	10.6981
58.9	3.79949
59.12	8.19429
59.34	3.34357
59.56	7.745
59.78	8.89699
60	0.041172
60.22	6.30916
60.44	9.39104
60.66	0.195722
60.88	1.14673
61.1	5.1365
61.32	5.20122
61.54	11.0328
61.76	8.94026
61.98	2.65292
62.2	0.619666
62.42	3.86557
62.64	7.67021
62.86	5.74679
63.08	4.76832
63.3	1.71303
63.52	0.743139
63.74	10.0835
63.96	3.12371
64.18	1.16708
64.4	4.21623
64.62	5.32901
64.84	5.29864
65.06	4.27555
65.28	6.28295
65.5	5.218
65.72	10.1676
65.94	0.592399
66.16	2.66388
66.38	1.43385
66.6	0.530762
66.82	3.51974
67.04	7.73267
67.26	5.6522
67.48	7.91583
67.7	3.00458
67.92	4.24377
68.14	3.59948
68.36	12.5393
68.58	2.86892
68.8	6.03121
69.02	9.12393
69.24	7.23134
69.46	1.02942
69.68	11.9995
69.9	5.88829
70.12	1.76488
70.34	1.64342
70.56	4.6863
70.78	5.73247
71	4.6534
71.22	10.5197
71.44	7.48375
71.66	4.49297
71.88	2.51522
72.1	7.4635
72.32	2.42728
72.54	7.41848
72.76	2.56971
72.98	0.454404
73.2	3.43505
73.42	4.28857
73.64	3.47578
73.86	3.51063
74.08	10.6138
74.3	1.29688
74.52	6.73523
74.74	1.25306
74.96	1.87171
75.18	5.96361
75.4	2.13764
75.62	2.12303
75.84	1.30356
76.06	9.20236
76.28	1.75364
76.5	6.07048
76.72	0.661508
76.94	3.33388
77.16	7.30177
77.38	10.2292
77.6	2.08384
77.82	1.03043
78.04	3.02711
78.26	7.8511
78.48	1.75722
78.7	5.70366
78.92	8.61516
79.14	8.24745
79.36	0.817957
79.58	1.27814
79.8	4.01912
80.02	0.082672
80.24	5.28847
80.46	5.28697
80.68	0.689529
80.9	2.41286
81.12	4.52674
81.34	7.87714
81.56	2.91124
81.78	0.959701
82	2.86142
82.22	2.81474
82.44	7.87102
82.66	5.99787
82.88	0.850015
83.1	0.845292
83.32	5.86245
83.54	3.93741
83.76	0.259319
83.98	0.707203
84.2	7.71542
84.42	5.77945
84.64	4.99849
84.86	4.81125
85.08	4.6914
85.3	7.77961
85.52	8.92811
85.74	6.80256
85.96	0.119803
86.18	4.9495
86.4	5.00733
86.62	3.04123
86.84	4.12538
87.06	11.1224
87.28	10.1756
87.5	2.23433
87.72	4.17037
87.94	3.03861
88.16	3.94188
88.38	1.86056
88.6	3.75236
88.82	9.88638
89.04	4.68485
89.26	2.61166
89.48	2.59164
89.7	2.95131
89.92	8.18475
