Measurement: Powder, Xray Data XY Processed
Mineral: Chlorargyrite
Rruff sample: R050360
Ideal chemistry: AgCl
Locality: Broken Hill, New South Wales, Australia
Source: University of Arizona Mineral Museum
Description: Yellowish-gray colloidal aggregate
Diffraction sample description: Powder
Cell parameters: a: 5.62099(9) b: 5.62099(9) c: 5.62099(9) alpha: 90 beta: 90 gamma: 90 volume: 177.598(9) crystal system: cubic
x	intensity
5	0
5.22	10.8328
5.44	8.26461
5.66	2.56314
5.88	1.5979
6.1	9.7531
6.32	2.08149
6.54	7.2816
6.76	2.58627
6.98	12.9015
7.2	8.01691
7.42	4.20664
7.64	4.427
7.86	3.69089
8.08	3.86131
8.3	6.97882
8.52	6.11942
8.74	0.161886
8.96	0.752397
9.18	9.44168
9.4	2.35302
9.62	7.62714
9.84	3.9312
10.06	5.09339
10.28	1.11738
10.5	3.26884
10.72	7.38374
10.94	0.527946
11.16	11.6418
11.38	0.654495
11.6	5.55372
11.82	7.62591
12.04	3.63743
12.26	10.5035
12.48	2.54881
12.7	3.70708
12.92	5.75984
13.14	3.83599
13.36	2.84956
13.58	1.95493
13.8	3.00805
14.02	9.00913
14.24	4.9642
14.46	8.82103
14.68	5.97837
14.9	1.81722
15.12	2.68091
15.34	1.65291
15.56	4.56905
15.78	7.48953
16	6.30906
16.22	0.677535
16.44	5.4663
16.66	1.51227
16.88	4.46328
17.1	0.281138
17.32	4.28763
17.54	4.28458
17.76	10.2842
17.98	1.34611
18.2	4.65069
18.42	2.85483
18.64	4.80419
18.86	3.6256
19.08	4.59921
19.3	5.723
19.52	3.70564
19.74	4.7428
19.96	2.72379
20.18	3.8661
20.4	1.64902
20.62	4.57718
20.84	1.50525
21.06	9.62973
21.28	7.64404
21.5	6.61993
21.72	8.64271
21.94	3.67223
22.16	8.65842
22.38	4.65834
22.6	6.78
22.82	2.93561
23.04	3.85104
23.26	1.74908
23.48	10.6931
23.7	2.65313
23.92	6.63459
24.14	7.71073
24.36	3.82161
24.58	2.64696
24.8	5.59392
25.02	5.34574
25.24	2.83324
25.46	10.912
25.68	0.857826
25.9	1.75513
26.12	7.61288
26.34	1.42368
26.56	1.05409
26.78	3.76972
27	7.90189
27.22	1.95979
27.44	73.7738
27.66	57.7817
27.88	8.85613
28.1	1.7381
28.32	4.92135
28.54	5.14648
28.76	22.3721
28.98	6.52854
29.2	6.50061
29.42	8.37167
29.64	0.067737
29.86	3.7228
30.08	0.542905
30.3	1.04811
30.52	1.5719
30.74	3.79632
30.96	9.29955
31.18	6.62988
31.4	5.13331
31.62	26.0178
31.84	512.695
32.06	107.043
32.28	17.122
32.5	6.16512
32.72	4.66745
32.94	6.09043
33.16	11.6404
33.38	6.50984
33.6	4.13309
33.82	0.377934
34.04	8.77002
34.26	3.06225
34.48	2.05307
34.7	6.13923
34.92	2.32364
35.14	2.28937
35.36	4.26531
35.58	3.49902
35.8	2.18376
36.02	6.05175
36.24	3.04995
36.46	0.935092
36.68	4.17643
36.9	0.202316
37.12	3.16724
37.34	9.28836
37.56	2.35055
37.78	3.55925
38	6.53206
38.22	2.55559
38.44	4.66829
38.66	4.71184
38.88	4.63636
39.1	3.72564
39.32	5.71384
39.54	7.70725
39.76	10.7185
39.98	2.62024
40.2	8.49081
40.42	4.37804
40.64	7.4859
40.86	12.3127
41.08	13.4947
41.3	10.6749
41.52	2.71055
41.74	2.63221
41.96	5.61158
42.18	1.55627
42.4	4.77655
42.62	2.61497
42.84	2.40327
43.06	2.97426
43.28	5.73583
43.5	1.40648
43.72	7.95089
43.94	2.69608
44.16	5.28788
44.38	3.89969
44.6	11.4876
44.82	5.89291
45.04	1.59278
45.26	17.4252
45.48	42.3346
45.7	302.559
45.92	65.9022
46.14	18.9784
46.36	8.08473
46.58	7.48916
46.8	4.89996
47.02	4.30992
47.24	8.80586
47.46	3.12163
47.68	0.556906
47.9	0.311308
48.12	5.62493
48.34	4.60389
48.56	3.90278
48.78	6.82699
49	2.76864
49.22	12.8054
49.44	1.52512
49.66	0.63757
49.88	9.78353
50.1	6.81725
50.32	4.04099
50.54	3.00088
50.76	0.91831
50.98	1.03203
51.2	7.99673
51.42	10.0178
51.64	2.09381
51.86	0.731714
52.08	1.38975
52.3	0.134492
52.52	3.1105
52.74	4.02184
52.96	0.952145
53.18	2.78569
53.4	0.534461
53.62	4.54674
53.84	10.5064
54.06	38.4727
54.28	44.1949
54.5	8.0676
54.72	1.09203
54.94	2.92272
55.16	2.9379
55.38	4.89936
55.6	0.104761
55.82	0.132564
56.04	3.80041
56.26	6.00707
56.48	12.017
56.7	76.1293
56.92	42.549
57.14	7.686
57.36	1.87997
57.58	4.00495
57.8	3.18788
58.02	2.37483
58.24	1.51701
58.46	10.9498
58.68	0.194067
58.9	6.90347
59.12	0.022942
59.34	2.91732
59.56	4.02463
59.78	11.1069
60	1.19915
60.22	7.42077
60.44	2.6721
60.66	0.214777
60.88	4.6972
61.1	6.78557
61.32	5.87792
61.54	3.78218
61.76	3.05726
61.98	0.964511
62.2	4.91079
62.42	0.995764
62.64	4.78806
62.86	2.23561
63.08	8.55851
63.3	1.59535
63.52	4.60652
63.74	4.59949
63.96	8.63559
64.18	1.50127
64.4	5.35184
64.62	0.348705
64.84	6.07641
65.06	3.8767
65.28	5.5815
65.5	6.32484
65.72	5.15744
65.94	3.85281
66.16	2.7931
66.38	13.7226
66.6	39.6993
66.82	10.813
67.04	4.90843
67.26	4.11452
67.48	5.23898
67.7	4.51817
67.92	5.6714
68.14	1.98713
68.36	2.07414
68.58	7.08197
68.8	9.32315
69.02	2.19582
69.24	5.13657
69.46	0.004776
69.68	4.93135
69.9	5.06721
70.12	1.94471
70.34	11.0804
70.56	2.88007
70.78	3.91665
71	3.95046
71.22	4.67228
71.44	1.35538
71.66	2.70423
71.88	5.66799
72.1	3.38906
72.32	6.22464
72.54	5.9296
72.76	6.61313
72.98	5.57853
73.2	9.53615
73.42	8.34496
73.64	8.94264
73.86	0.604999
74.08	4.44754
74.3	5.22052
74.52	2.05901
74.74	2.94814
74.96	6.8883
75.18	8.88396
75.4	13.5551
75.62	49.8377
75.84	46.2395
76.06	15.4367
76.28	6.64668
76.5	4.87913
76.72	2.13857
76.94	2.57112
77.16	0.919913
77.38	4.15865
77.6	0.340326
77.82	2.49761
78.04	2.29112
78.26	3.75246
78.48	10.4852
78.7	4.51938
78.92	1.70175
79.14	5.69143
79.36	8.66051
79.58	1.60867
79.8	1.6027
80.02	3.63581
80.24	7.57384
80.46	4.63822
80.68	6.51889
80.9	1.5595
81.12	6.58499
81.34	5.63706
81.56	3.60074
81.78	4.75688
82	0.274662
82.22	2.58594
82.44	1.59266
82.66	4.47636
82.88	1.22573
83.1	3.01945
83.32	4.74155
83.54	5.34489
83.76	2.92557
83.98	6.78212
84.2	19.5427
84.42	34.5083
84.64	23.4293
84.86	14.7787
85.08	3.96034
85.3	9.43759
85.52	4.71981
85.74	14.0292
85.96	2.43871
86.18	0.768613
86.4	6.04687
86.62	4.42239
86.84	0.614515
87.06	2.76582
87.28	7.60511
87.5	0.392082
87.72	0.474957
87.94	3.56133
88.16	13.5124
88.38	8.44749
88.6	4.38497
88.82	2.47216
89.04	7.26962
89.26	3.21361
89.48	5.0399
89.7	0.123133
89.92	7.77567
