Measurement: Powder, Xray Data XY Processed
Mineral: Chloritoid
Rruff sample: R060292
Ideal chemistry: Fe^2+^Al_2_OSiO_4_(OH)_2_
Locality: Pech, Kunar Province, Afghanistan
Source: Herb Obodda
Description: Black tabular crystal
Diffraction sample description: Powder
Measured chemistry: (Fe^2+^_1.55_Mg_0.43_Mn_0.02_)_Σ=2_(Al_3.93_Fe^3+^_0.07_)_Σ=4_Si_2.00_O_10_(OH)_4_
Cell parameters: a: 9.473(1) b: 5.4818(6) c: 18.165(2) alpha: 90 beta: 101.755(7) gamma: 90 volume: 923.5(0) crystal system: monoclinic
x	intensity
5	0
5.22	34.478
5.44	23.986
5.66	16.512
5.88	3.556
6.1	1.323
6.32	12.917
6.54	24.808
6.76	24.235
6.98	19.244
7.2	11.012
7.42	23.025
7.64	5.541
7.86	19.441
8.08	8.397
8.3	0.673
8.52	12.388
8.74	7.481
8.96	31.512
9.18	25.814
9.4	16.793
9.62	22.381
9.84	17.168
10.06	18.638
10.28	11.505
10.5	9.533
10.72	18.778
10.94	7.137
11.16	11.417
11.38	10.505
11.6	11.974
11.82	3.187
12.04	2.118
12.26	16.949
12.48	10.38
12.7	20.1
12.92	9.378
13.14	5.823
13.36	8.854
13.58	24.744
13.8	21.647
14.02	11.066
14.24	22.055
14.46	7.949
14.68	9.978
14.9	32.252
15.12	25.655
15.34	15.899
15.56	10.199
15.78	24.492
16	19.658
16.22	24.574
16.44	26.85
16.66	9.872
16.88	4.852
17.1	28.08
17.32	31.211
17.54	23.714
17.76	14.009
17.98	21.848
18.2	8.984
18.42	18.065
18.64	5.604
18.86	30.759
19.08	17.924
19.3	6.765
19.52	12.505
19.74	22.447
19.96	799.192
20.18	24.567
20.4	16.573
20.62	8.738
20.84	4.999
21.06	27.63
21.28	41.356
21.5	11.333
21.72	24.578
21.94	6.583
22.16	14.619
22.38	11.39
22.6	17.744
22.82	5.62
23.04	14.901
23.26	12.073
23.48	23.815
23.7	17.686
23.92	19.333
24.14	25.175
24.36	11.929
24.58	3.235
24.8	17.16
25.02	12.994
25.24	24.306
25.46	24.088
25.68	3.597
25.9	9.213
26.12	33.331
26.34	11.033
26.56	15.103
26.78	15.135
27	19.977
27.22	30.488
27.44	14.182
27.66	15.875
27.88	11.179
28.1	7.546
28.32	1.853
28.54	3.194
28.76	27.884
28.98	36.552
29.2	2.796
29.42	7.413
29.64	16.648
29.86	31.249
30.08	29.84
30.3	23.818
30.52	19.999
30.74	22.168
30.96	0.641
31.18	0.735
31.4	3.634
31.62	30.403
31.84	33.269
32.06	4.741
32.28	29.136
32.5	25.956
32.72	36.67
32.94	26.223
33.16	7.864
33.38	31.031
33.6	5.41
33.82	2.488
34.04	54.612
34.26	26.934
34.48	32.404
34.7	19.306
34.92	7.518
35.14	14.127
35.36	13.416
35.58	13.33
35.8	32.463
36.02	16.346
36.24	11.512
36.46	5.15
36.68	13.469
36.9	1.655
37.12	14.21
37.34	6.2
37.56	12.34
37.78	8.616
38	17.426
38.22	28.5
38.44	25.868
38.66	28.63
38.88	28.175
39.1	80.183
39.32	22.75
39.54	7.043
39.76	2.942
39.98	37.957
40.2	2.284
40.42	13.046
40.64	17.24
40.86	4.455
41.08	17.679
41.3	12.898
41.52	26.811
41.74	18.946
41.96	1.387
42.18	21.164
42.4	16.186
42.62	0.074
42.84	18.687
43.06	7.347
43.28	23.158
43.5	25.973
43.72	30.034
43.94	4.877
44.16	6.818
44.38	37.139
44.6	17.995
44.82	7.535
45.04	26.864
45.26	16.99
45.48	2.983
45.7	49.331
45.92	14.463
46.14	7.464
46.36	13.31
46.58	15.746
46.8	12.736
47.02	10.556
47.24	0.968
47.46	4.138
47.68	10.692
47.9	15.933
48.12	19.983
48.34	17.404
48.56	32.273
48.78	14.257
49	23.902
49.22	15.427
49.44	26.01
49.66	43.983
49.88	14.965
50.1	22.67
50.32	7.558
50.54	30.689
50.76	50.735
50.98	7.174
51.2	26.576
51.42	17.57
51.64	13.098
51.86	14.394
52.08	27.77
52.3	37.284
52.52	26.051
52.74	23.849
52.96	21.317
53.18	26.715
53.4	3.115
53.62	6.713
53.84	8.766
54.06	1.798
54.28	30.325
54.5	10.022
54.72	1.797
54.94	4.003
55.16	29.355
55.38	9.48
55.6	13.636
55.82	32.854
56.04	2.157
56.26	26.132
56.48	20.162
56.7	14.822
56.92	17.9
57.14	4.741
57.36	16.441
57.58	17.787
57.8	1.463
58.02	8.461
58.24	3.059
58.46	39.756
58.68	12.273
58.9	5.095
59.12	26.364
59.34	34.266
59.56	32.099
59.78	28.797
60	13.077
60.22	17.553
60.44	18.622
60.66	13.708
60.88	17.451
61.1	1.048
61.32	19.215
61.54	21.73
61.76	0.912
61.98	20.407
62.2	12.951
62.42	6.552
62.64	10.838
62.86	5.931
63.08	27.012
63.3	1.608
63.52	24.2
63.74	26.755
63.96	3.089
64.18	12.024
64.4	20.99
64.62	6.006
64.84	18.128
65.06	29.106
65.28	4.246
65.5	15.183
65.72	18.923
65.94	5.593
66.16	15.917
66.38	21.128
66.6	24.303
66.82	13.248
67.04	7.694
67.26	22.554
67.48	14.744
67.7	14.64
67.92	20.64
68.14	5.589
68.36	10.557
68.58	9.337
68.8	19.472
69.02	14.325
69.24	15.478
69.46	29.627
69.68	19.978
69.9	13.335
70.12	11.05
70.34	12.849
70.56	29.973
70.78	24.608
71	9.895
71.22	6.465
71.44	9.923
71.66	14.326
71.88	0.065
72.1	21.38
72.32	16.854
72.54	8.233
72.76	24.017
72.98	11.398
73.2	10.219
73.42	4.511
73.64	21.694
73.86	7.255
74.08	1.297
74.3	2.883
74.52	6.705
74.74	14.829
74.96	7.049
75.18	15.91
75.4	26.874
75.62	1.155
75.84	1.385
76.06	20.413
76.28	9.959
76.5	16.22
76.72	9.08
76.94	11.153
77.16	9.261
77.38	19.356
77.6	27.465
77.82	22.929
78.04	18.407
78.26	26.514
78.48	12.154
78.7	9.009
78.92	3.587
79.14	25.48
79.36	14.268
79.58	14.846
79.8	28.161
80.02	22.287
80.24	13.831
80.46	8.377
80.68	6.498
80.9	0.643
81.12	20.119
81.34	7.014
81.56	13.978
81.78	17.094
82	6.959
82.22	19.86
82.44	11.707
82.66	13.38
82.88	1.401
83.1	8.421
83.32	24.188
83.54	15.975
83.76	11.392
83.98	13.756
84.2	6.751
84.42	20.511
84.64	18.898
84.86	22.626
85.08	10.102
85.3	18.411
85.52	14.248
85.74	16.323
85.96	14.823
86.18	16.947
86.4	4.375
86.62	17.518
86.84	21.933
87.06	16.848
87.28	10.555
87.5	15.334
87.72	15.912
87.94	19.377
88.16	22.9
88.38	33.31
88.6	16.39
88.82	12.125
89.04	18.833
89.26	29.399
89.48	25.331
89.7	14.477
89.92	17.88
