Measurement: Powder, Xray Data XY Processed
Mineral: Chlorartinite
Rruff sample: R060878
Ideal chemistry: Mg_2_CO_3_Cl(OH)2.5H_2_O
Locality: 500m level, Quarry of Udachnaya-Vostochnaya pipe, Yakutia, Russia
Source: Michael Scott
Description: White fibrous mass, associated with larger crystals of aragonite
Diffraction sample description: Powder, mixed with aragonite
Cell parameters: a: 23.183(5) b: 23.183(5) c: 7.223(3) alpha: 90 beta: 90 gamma: 120 volume: 3360(1) crystal system: hexagonal
x	intensity
5	0
5.22	2.27611
5.44	12.3174
5.66	11.2265
5.88	8.34045
6.1	8.57059
6.32	5.61799
6.54	15.9726
6.76	16.3684
6.98	9.64739
7.2	12.484
7.42	26.2835
7.64	141.073
7.86	13.0613
8.08	2.62411
8.3	1.5549
8.52	4.31773
8.74	2.28513
8.96	7.95189
9.18	7.76898
9.4	11.6228
9.62	6.09126
9.84	5.32965
10.06	0.552846
10.28	6.95858
10.5	13.2265
10.72	11.3157
10.94	14.763
11.16	3.75487
11.38	4.00006
11.6	6.09195
11.82	0.982001
12.04	7.73632
12.26	3.68194
12.48	3.59261
12.7	7.83468
12.92	5.71758
13.14	22.6094
13.36	15.3008
13.58	7.25822
13.8	3.09899
14.02	10.9253
14.24	13.7312
14.46	4.65767
14.68	4.81573
14.9	5.92544
15.12	3.58829
15.34	24.8888
15.56	4.81679
15.78	4.61567
16	3.6763
16.22	3.64552
16.44	11.7801
16.66	3.76564
16.88	6.95987
17.1	2.71707
17.32	8.96776
17.54	0.009481
17.76	2.70216
17.98	1.29422
18.2	2.77249
18.42	11.805
18.64	3.76776
18.86	5.74451
19.08	7.67509
19.3	7.58902
19.52	9.79527
19.74	4.62449
19.96	2.53613
20.18	9.84269
20.4	11.0546
20.62	3.0602
20.84	4.06347
21.06	6.33544
21.28	3.33008
21.5	9.57785
21.72	3.53656
21.94	3.56811
22.16	3.61518
22.38	5.70981
22.6	7.80388
22.82	3.88242
23.04	21.1375
23.26	5.26106
23.48	6.21516
23.7	11.1503
23.92	1.83746
24.14	7.71832
24.36	3.73375
24.58	4.414
24.8	9.14791
25.02	5.29846
25.24	6.49865
25.46	0.367732
25.68	2.64084
25.9	11.9851
26.12	8.36754
26.34	67.8543
26.56	27.3324
26.78	10.6828
27	1.46568
27.22	59.6664
27.44	25.0776
27.66	16.3371
27.88	17.5542
28.1	9.7161
28.32	2.80916
28.54	7.78546
28.76	5.67659
28.98	15.7056
29.2	8.53873
29.42	11.0102
29.64	23.423
29.86	31.725
30.08	9.41508
30.3	1.73189
30.52	6.19296
30.74	2.99553
30.96	3.67496
31.18	1.62037
31.4	11.2433
31.62	12.5627
31.84	14.8394
32.06	14.072
32.28	5.31067
32.5	9.43494
32.72	14.3592
32.94	0.362418
33.16	75.8756
33.38	6.16084
33.6	15.6969
33.82	18.4165
34.04	12.6783
34.26	1.74558
34.48	5.31277
34.7	2.38195
34.92	0.560865
35.14	6.75235
35.36	0.0184
35.58	0.286831
35.8	6.12539
36.02	9.17864
36.24	34.9245
36.46	7.00661
36.68	11.2037
36.9	12.5624
37.12	7.47079
37.34	22.4124
37.56	5.38867
37.78	6.25554
38	28.2248
38.22	7.21777
38.44	76.7966
38.66	38.6622
38.88	3.435
39.1	1.11645
39.32	1.07727
39.54	2.07015
39.76	4.02174
39.98	7.96611
40.2	11.8379
40.42	2.91912
40.64	23.1793
40.86	8.98052
41.08	5.09538
41.3	21.2868
41.52	4.51443
41.74	3.3096
41.96	9.78866
42.18	9.10567
42.4	6.28712
42.62	2.85397
42.84	23.7096
43.06	27.22
43.28	9.02523
43.5	1.86556
43.72	1.56318
43.94	10.2855
44.16	11.3956
44.38	12.2141
44.6	3.86165
44.82	12.3946
45.04	0.138667
45.26	6.20468
45.48	27.727
45.7	6.80074
45.92	49.2088
46.14	11.6966
46.36	0.944008
46.58	1.13022
46.8	7.80811
47.02	7.5376
47.24	11.886
47.46	6.2182
47.68	12.8081
47.9	6.75173
48.12	7.94163
48.34	46.0532
48.56	11.3187
48.78	4.41716
49	6.5344
49.22	12.284
49.44	4.98231
49.66	4.69855
49.88	8.14241
50.1	7.90161
50.32	18.8839
50.54	8.60352
50.76	3.44326
50.98	7.38322
51.2	12.2844
51.42	5.14869
51.64	1.15157
51.86	7.14573
52.08	11.8824
52.3	3.01933
52.52	17.2946
52.74	4.84209
52.96	14.988
53.18	12.2206
53.4	7.09477
53.62	2.32568
53.84	8.5818
54.06	8.09724
54.28	6.19316
54.5	8.273
54.72	1.23575
54.94	7.0557
55.16	5.76746
55.38	6.79204
55.6	1.91853
55.82	8.11853
56.04	0.195274
56.26	4.36475
56.48	3.25336
56.7	9.62486
56.92	4.84264
57.14	14.0906
57.36	1.42589
57.58	10.7802
57.8	7.97379
58.02	3.02474
58.24	5.9057
58.46	4.88283
58.68	10.6906
58.9	5.59632
59.12	8.31016
59.34	10.1619
59.56	1.97207
59.78	4.7538
60	8.71519
60.22	11.6
60.44	7.82911
60.66	0.945004
60.88	3.89633
61.1	4.1336
61.32	7.19609
61.54	0.797125
61.76	3.17876
61.98	8.21308
62.2	2.85326
62.42	2.89083
62.64	0.963192
62.86	5.88701
63.08	5.15744
63.3	14.5894
63.52	7.63361
63.74	8.03029
63.96	2.1939
64.18	6.49042
64.4	1.62278
64.62	12.7029
64.84	6.9671
65.06	5.88033
65.28	5.72696
65.5	4.52226
65.72	1.27259
65.94	7.03536
66.16	8.75775
66.38	9.64848
66.6	9.47991
66.82	3.4328
67.04	15.5998
67.26	7.57554
67.48	1.81555
67.7	0.24408
67.92	4.76339
68.14	4.69185
68.36	6.89803
68.58	0.837448
68.8	1.81501
69.02	4.74061
69.24	9.80866
69.46	9.63692
69.68	4.46291
69.9	6.47528
70.12	1.43813
70.34	7.55277
70.56	6.67046
70.78	9.88037
71	4.18819
71.22	4.40234
71.44	8.45504
71.66	7.32111
71.88	10.2553
72.1	6.10873
72.32	2.07006
72.54	5.02456
72.76	9.99018
72.98	6.9106
73.2	9.6652
73.42	5.77086
73.64	7.83549
73.86	2.97099
74.08	3.04835
74.3	3.13495
74.52	7.35051
74.74	5.57408
74.96	1.70251
75.18	8.7652
75.4	7.76008
75.62	3.70518
75.84	4.37553
76.06	9.08613
76.28	1.00415
76.5	11.1049
76.72	13.1259
76.94	0.945404
77.16	13.7524
77.38	4.82092
77.6	4.82872
77.82	0.051075
78.04	7.82078
78.26	2.85368
78.48	4.92319
78.7	8.06959
78.92	3.89973
79.14	1.09811
79.36	8.17423
79.58	5.50309
79.8	7.30342
80.02	1.28288
80.24	1.75
80.46	2.40183
80.68	5.59518
80.9	6.7129
81.12	7.57532
81.34	1.64501
81.56	0.535596
81.78	9.64142
82	12.6759
82.22	13.687
82.44	6.62248
82.66	1.77233
82.88	0.660927
83.1	3.33917
83.32	8.26591
83.54	3.26177
83.76	3.71473
83.98	0.329537
84.2	6.02032
84.42	4.87847
84.64	1.13866
84.86	2.28552
85.08	4.06717
85.3	2.12753
85.52	5.20784
85.74	4.2929
85.96	3.91256
86.18	5.01738
86.4	7.91709
86.62	6.9669
86.84	7.09488
87.06	8.84011
87.28	2.78251
87.5	4.72016
87.72	2.71143
87.94	4.68373
88.16	5.46138
88.38	9.1683
88.6	8.2515
88.82	2.34118
89.04	4.27211
89.26	2.40809
89.48	9.83002
89.7	2.99271
89.92	5.29262
