Measurement: Powder, Xray Data XY Processed
Mineral: Chondrodite
Rruff sample: R040016
Ideal chemistry: Mg_5_(SiO_4_)_2_F_2_
Locality: Vastmanland, Kafveltorp, Sweden
Source: University of Arizona Mineral Museum
Description: Deep red single crystals embedded in matrix
Diffraction sample description: Powder
Measured chemistry: (Mg_4.61_Fe_0.31_Mn_0.07_Ca_0.01_)_Σ=5_(Si_1.00_O_4_)_2_(F_1.16_(OH)_0.84_)_Σ=2_
Cell parameters: a: 4.7370(2) b: 10.2789(6) c: 7.8481(6) alpha: 109.085(5) beta: 90. gamma: 90. volume: 361.13(3) crystal system: monoclinic
x	intensity
5	0
5.22	22.809
5.44	15.359
5.66	13.447
5.88	15.468
6.1	12.297
6.32	21.94
6.54	10.296
6.76	7.916
6.98	0.322
7.2	14.36
7.42	17.494
7.64	6.357
7.86	7.499
8.08	6.025
8.3	14.069
8.52	13.107
8.74	36.778
8.96	11.659
9.18	4.959
9.4	8.466
9.62	26.295
9.84	14.347
10.06	5.424
10.28	11.586
10.5	8.944
10.72	15.726
10.94	11.305
11.16	20.464
11.38	12.07
11.6	10.022
11.82	7.224
12.04	35.455
12.26	14.232
12.48	23.039
12.7	30.297
12.92	18.767
13.14	21.335
13.36	3.632
13.58	16.101
13.8	9.921
14.02	20.876
14.24	3.182
14.46	16.777
14.68	11.54
14.9	19.778
15.12	5.494
15.34	11.325
15.56	8.042
15.78	2.162
16	10.852
16.22	32.997
16.44	5.155
16.66	19.556
16.88	4.155
17.1	4.787
17.32	13.097
17.54	16.101
17.76	8.779
17.98	11.651
18.2	42.439
18.42	23.755
18.64	7.047
18.86	18.23
19.08	3.231
19.3	21.349
19.52	3.67
19.74	10.089
19.96	14.654
20.18	21.107
20.4	18.188
20.62	11.138
20.84	22.974
21.06	1.59
21.28	9.237
21.5	17.963
21.72	2.311
21.94	14.286
22.16	10.681
22.38	34.738
22.6	22.654
22.82	0.664
23.04	6.18
23.26	6.585
23.48	11.441
23.7	3.554
23.92	22.599
24.14	24.698
24.36	17.637
24.58	16.247
24.8	18.889
25.02	588.071
25.24	4.314
25.46	20.281
25.68	46.308
25.9	7.353
26.12	12.444
26.34	58.081
26.56	6.272
26.78	31.848
27	14.297
27.22	17.416
27.44	9.002
27.66	2.313
27.88	2.079
28.1	24.966
28.32	5.75
28.54	19.664
28.76	4.263
28.98	1.707
29.2	16.378
29.42	17.248
29.64	179.01
29.86	16.59
30.08	24.366
30.3	5.16
30.52	4.308
30.74	7.399
30.96	9.788
31.18	8.627
31.4	26.327
31.62	6.638
31.84	10.446
32.06	6.763
32.28	5.843
32.5	183.323
32.72	8.31
32.94	4.34
33.16	10.599
33.38	18.804
33.6	199.622
33.82	1.45
34.04	23.086
34.26	291.713
34.48	12.935
34.7	1.332
34.92	17.779
35.14	10.283
35.36	25.638
35.58	11.96
35.8	99.581
36.02	7.997
36.24	13.455
36.46	8.611
36.68	1.84
36.9	16.187
37.12	50.315
37.34	16.074
37.56	3.592
37.78	24.428
38	3.291
38.22	17.769
38.44	10.493
38.66	22.909
38.88	116.389
39.1	34.6
39.32	18.28
39.54	104.32
39.76	18.669
39.98	163.338
40.2	30.488
40.42	24.89
40.64	10.251
40.86	2.491
41.08	10.842
41.3	15.035
41.52	5.211
41.74	0.207
41.96	29.444
42.18	9.279
42.4	4.106
42.62	14.099
42.84	172.549
43.06	3.835
43.28	14.59
43.5	23.491
43.72	9.895
43.94	11.15
44.16	29.322
44.38	8.103
44.6	4.394
44.82	40.774
45.04	19.856
45.26	14.318
45.48	5.205
45.7	6.148
45.92	0.334
46.14	8.166
46.36	20.667
46.58	0.105
46.8	22.105
47.02	0.24
47.24	0.055
47.46	16.119
47.68	9.113
47.9	5.8
48.12	8.023
48.34	38.136
48.56	6.2
48.78	17.957
49	11.283
49.22	47.653
49.44	11.32
49.66	2.452
49.88	10.384
50.1	28.518
50.32	23.119
50.54	17.404
50.76	44.89
50.98	18.573
51.2	17.673
51.42	1.107
51.64	18.824
51.86	42.342
52.08	4.124
52.3	16.334
52.52	467.31
52.74	90.623
52.96	6.152
53.18	10.88
53.4	16.957
53.62	11.719
53.84	25.14
54.06	46.572
54.28	20.427
54.5	9.169
54.72	10.757
54.94	2.036
55.16	1.05
55.38	4.596
55.6	1.45
55.82	2.669
56.04	4.171
56.26	13.067
56.48	0.99
56.7	12.36
56.92	36.452
57.14	41.291
57.36	20.613
57.58	24.828
57.8	10.531
58.02	4.383
58.24	10.705
58.46	29.148
58.68	29.409
58.9	3.329
59.12	13.246
59.34	9.802
59.56	1.298
59.78	12.938
60	34.94
60.22	24.937
60.44	16.806
60.66	13.536
60.88	4.898
61.1	7.538
61.32	11.295
61.54	1.019
61.76	41.682
61.98	21.716
62.2	14.154
62.42	16.749
62.64	145.278
62.86	62.513
63.08	32.981
63.3	2.226
63.52	21.184
63.74	8.219
63.96	12.961
64.18	13.965
64.4	15.68
64.62	8.724
64.84	16.444
65.06	22.594
65.28	9.066
65.5	36.289
65.72	25.049
65.94	19.292
66.16	11.003
66.38	12.554
66.6	17.363
66.82	28.785
67.04	12.864
67.26	12.753
67.48	15.074
67.7	4.43
67.92	2.306
68.14	15.328
68.36	0.053
68.58	13.829
68.8	14.919
69.02	9.452
69.24	2.13
69.46	24.828
69.68	11.509
69.9	128.157
70.12	46.719
70.34	3.837
70.56	13.334
70.78	9.766
71	10.915
71.22	19.338
71.44	18.648
71.66	8.665
71.88	9.854
72.1	4.164
72.32	23.893
72.54	23.196
72.76	17.793
72.98	15.234
73.2	0.506
73.42	1.648
73.64	5.272
73.86	5.245
74.08	4.34
74.3	14.69
74.52	9.591
74.74	13.949
74.96	12.866
75.18	19.342
75.4	9.227
75.62	14.576
75.84	13.85
76.06	2.933
76.28	16.701
76.5	6.856
76.72	10.579
76.94	3.512
77.16	6.733
77.38	7.8
77.6	14.008
77.82	0.421
78.04	16.067
78.26	14.394
78.48	6.521
78.7	23.382
78.92	0.042
79.14	9.062
79.36	12.754
79.58	3.402
79.8	24.695
80.02	3.296
80.24	7.61
80.46	9.44
80.68	13.349
80.9	12.893
81.12	8.866
81.34	11.431
81.56	11.312
81.78	11.718
82	10.244
82.22	22.973
82.44	14.011
82.66	22.088
82.88	20.918
83.1	3.916
83.32	2.357
83.54	14.45
83.76	12.059
83.98	18.482
84.2	20.069
84.42	24.992
84.64	19.004
84.86	14.981
85.08	27.664
85.3	13.877
85.52	17.157
85.74	11.849
85.96	20.956
86.18	2.287
86.4	20.954
86.62	6.381
86.84	16.379
87.06	10.477
87.28	9.587
87.5	1.275
87.72	20.571
87.94	24.787
88.16	35.56
88.38	20.044
88.6	19.146
88.82	13.027
89.04	1.295
89.26	11.569
89.48	4.542
89.7	10.337
89.92	31.906
