Measurement: Powder, Xray Data XY Processed
Mineral: Claudetite
Rruff sample: R050313
Ideal chemistry: As^3+^_2_O_3_
Locality: JÃ¡chymov, Erzgebirge Region, Czech Republic
Source: University of Arizona Mineral Museum
Description: Colorless prismatic crystals scattered on the matrix
Diffraction sample description: Single crystal, powder profile is calculated
Measured chemistry: As_2.00_O_3_ ; trace amounts of Al, gray phase
Cell parameters: a: 5.248(2) b: 12.964(4) c: 4.509(2) alpha: 90 beta: 94.06(3) gamma: 90 volume: 306.0(6) crystal system: monoclinic
x	intensity
5	0
5.22	0
5.44	0
5.66	0
5.88	0
6.1	0
6.32	0
6.54	0
6.76	0
6.98	0
7.2	0
7.42	0
7.64	0
7.86	0
8.08	0
8.3	0
8.52	0
8.74	0
8.96	0
9.18	0
9.4	0
9.62	0
9.84	0
10.06	0
10.28	0
10.5	0
10.72	0
10.94	0
11.16	0
11.38	0
11.6	0
11.82	0
12.04	0
12.26	0
12.48	0
12.7	0
12.92	0
13.14	0
13.36	0
13.58	0
13.8	3.299
14.02	0
14.24	0
14.46	0
14.68	0
14.9	0
15.12	0
15.34	0
15.56	0
15.78	0
16	0
16.22	0
16.44	0
16.66	0
16.88	0
17.1	0
17.32	0
17.54	0
17.76	0
17.98	0
18.2	1.762
18.42	0.019
18.64	0
18.86	0
19.08	0
19.3	0
19.52	0
19.74	0
19.96	0
20.18	0
20.4	0
20.62	0
20.84	1.892
21.06	0
21.28	0
21.5	0
21.72	0
21.94	2.852
22.16	0
22.38	0
22.6	0
22.82	0
23.04	0
23.26	0
23.48	0
23.7	0
23.92	0.027
24.14	0.031
24.36	0
24.58	0
24.8	0
25.02	0.437
25.24	0.169
25.46	0
25.68	0
25.9	0
26.12	33.906
26.34	0
26.56	0
26.78	5.169
27	0.157
27.22	0
27.44	0
27.66	24.213
27.88	1.246
28.1	0
28.32	0
28.54	0.03
28.76	2.441
28.98	0
29.2	0
29.42	0
29.64	0
29.86	0
30.08	0
30.3	1.638
30.52	0
30.74	0
30.96	0
31.18	0
31.4	0
31.62	0
31.84	0
32.06	0
32.28	0
32.5	0.002
32.72	37.694
32.94	0.016
33.16	0
33.38	0
33.6	0
33.82	0
34.04	0.321
34.26	6.409
34.48	0
34.7	0
34.92	16.786
35.14	0.005
35.36	0
35.58	0
35.8	0
36.02	0
36.24	0
36.46	0
36.68	0
36.9	0.001
37.12	1.732
37.34	0
37.56	0
37.78	0.513
38	0
38.22	0
38.44	0
38.66	0
38.88	0.257
39.1	2.013
39.32	0.959
39.54	0
39.76	22.887
39.98	0.026
40.2	0.576
40.42	5.743
40.64	0.001
40.86	0
41.08	6.896
41.3	0.004
41.52	1.757
41.74	0.003
41.96	0
42.18	0.034
42.4	0.264
42.62	0
42.84	0
43.06	1.431
43.28	0.307
43.5	2.124
43.72	0
43.94	0
44.16	0.025
44.38	0.003
44.6	8.604
44.82	0.111
45.04	0
45.26	2.354
45.48	0.001
45.7	0.073
45.92	0
46.14	0
46.36	0.017
46.58	0
46.8	0.073
47.02	0.388
47.24	0
47.46	0
47.68	0.522
47.9	0
48.12	0.4
48.34	0.001
48.56	0
48.78	0
49	0
49.22	2.678
49.44	0
49.66	4.768
49.88	0.006
50.1	3.008
50.32	0.232
50.54	0.002
50.76	0.039
50.98	0
51.2	0
51.42	2.295
51.64	1.373
51.86	0
52.08	1.839
52.3	0.003
52.52	0
52.74	3.117
52.96	1.543
53.18	0.002
53.4	0.453
53.62	0.087
53.84	1.241
54.06	0.051
54.28	0.017
54.5	1.796
54.72	0.879
54.94	1.896
55.16	0.223
55.38	0.728
55.6	0.099
55.82	4.965
56.04	0.564
56.26	0.652
56.48	1.755
56.7	0
56.92	1.303
57.14	0.185
57.36	1.063
57.58	0
57.8	4.519
58.02	0.399
58.24	0.006
58.46	0.284
58.68	0
58.9	0
59.12	0
59.34	0.077
59.56	1.425
59.78	0.318
60	0.037
60.22	1.287
60.44	0.028
60.66	0
60.88	0
61.1	0.003
61.32	0.012
61.54	0.116
61.76	0.117
61.98	0.083
62.2	0.4
62.42	0
62.64	0.064
62.86	0.306
63.08	0.19
63.3	3.588
63.52	1.513
63.74	0.998
63.96	0.054
64.18	0.002
64.4	0.243
64.62	0.345
64.84	0.271
65.06	0
65.28	4.079
65.5	2.383
65.72	0.468
65.94	0.222
66.16	0.059
66.38	0.007
66.6	0
66.82	0.136
67.04	3.714
67.26	1.108
67.48	0.01
67.7	0
67.92	0.523
68.14	0.106
68.36	0.382
68.58	0.472
68.8	4.879
69.02	2.16
69.24	1.881
69.46	1.397
69.68	0.117
69.9	0
70.12	0.218
70.34	0.177
70.56	0.001
70.78	0
71	0.047
71.22	0.061
71.44	3.068
71.66	2.833
71.88	4.382
72.1	2.155
72.32	0.043
72.54	0.85
72.76	1.347
72.98	0.331
73.2	0
73.42	0
73.64	0.311
73.86	0.59
74.08	0.533
74.3	1.399
74.52	0.69
74.74	0
74.96	0.953
75.18	0.48
75.4	0.168
75.62	0.707
75.84	0.374
76.06	0.067
76.28	1.047
76.5	0.521
76.72	0
76.94	0.037
77.16	1.289
77.38	0.792
77.6	0.209
77.82	0.28
78.04	0.149
78.26	0.162
78.48	0.224
78.7	0.059
78.92	0.008
79.14	0.304
79.36	0.201
79.58	0.326
79.8	0.358
80.02	0.014
80.24	0.012
80.46	0.033
80.68	1.103
80.9	1.166
81.12	0.774
81.34	0.144
81.56	0.193
81.78	0.005
82	0.002
82.22	0
82.44	1.018
82.66	1.676
82.88	0.988
83.1	0.014
83.32	0.031
83.54	0.02
83.76	0.348
83.98	0.603
84.2	0.543
84.42	1.024
84.64	0.567
84.86	0.539
85.08	0.445
85.3	0.991
85.52	0.127
85.74	1.435
85.96	1.143
86.18	0.238
86.4	0.336
86.62	0.008
86.84	0
87.06	0.92
87.28	0.091
87.5	0.454
87.72	0.401
87.94	0.092
88.16	0.049
88.38	0.013
88.6	0.153
88.82	0.407
89.04	0.315
89.26	0.012
89.48	0.121
89.7	0.169
89.92	0.004
