Measurement: Powder, Xray Data XY Processed
Mineral: Clinochlore
Rruff sample: R061080
Ideal chemistry: Mg_5_Al(AlSi_3_O_10_)(OH)_8_
Locality: Callaghan Creek, Whistler, British Columbia, Canada
Source: Lloyd Twaites
Description: Dark green micaceous crystals with quartz
Diffraction sample description: Powder, cell parameters are from single crystal
Measured chemistry: (Mg_2.82_Fe^2+^_1.80_A1_1.24_[box]_0.08_Mn_0.06_)_Σ=6_(Si_2.91_Al_1.09_)_Σ=4_O_10_(OH)_8_
Cell parameters: a: 5.362(5) b: 9.26(1) c: 14.26(2) alpha: 90 beta: 97.39(6) gamma: 90 volume: 702(1) crystal system: monoclinic
x	intensity
5	0
5.22	20.0751
5.44	26.7816
5.66	31.9694
5.88	20.8007
6.1	36.4131
6.32	180.121
6.54	6.37775
6.76	18.1321
6.98	13.029
7.2	5.20947
7.42	13.2583
7.64	17.0966
7.86	17.2228
8.08	3.64575
8.3	17.8743
8.52	5.97217
8.74	12.4546
8.96	14.9896
9.18	18.4377
9.4	7.70972
9.62	9.49178
9.84	15.1854
10.06	0.375435
10.28	15.6755
10.5	14.4903
10.72	12.614
10.94	2.91406
11.16	3.54288
11.38	13.0396
11.6	10.4545
11.82	9.58371
12.04	13.8105
12.26	10.2309
12.48	313.096
12.7	35.8315
12.92	1.58879
13.14	3.30281
13.36	6.2052
13.58	19.5998
13.8	0.270714
14.02	9.46522
14.24	19.4913
14.46	11.0015
14.68	22.0416
14.9	13.7223
15.12	12.8486
15.34	6.80339
15.56	11.298
15.78	17.908
16	19.0734
16.22	6.88598
16.44	12.0064
16.66	5.4827
16.88	4.13143
17.1	14.2925
17.32	22.1776
17.54	2.32438
17.76	22.1455
17.98	6.61542
18.2	6.44314
18.42	6.02815
18.64	25.4008
18.86	269.178
19.08	13.1477
19.3	14.1492
19.52	17.4272
19.74	13.8786
19.96	10.5961
20.18	10.0686
20.4	1.8529
20.62	7.34249
20.84	16.5084
21.06	9.36316
21.28	18.4475
21.5	14.5457
21.72	18.6186
21.94	19.4952
22.16	15.7029
22.38	32.4789
22.6	28.6731
22.82	26.4264
23.04	14.8682
23.26	26.4467
23.48	16.1249
23.7	9.83933
23.92	7.24193
24.14	4.66879
24.36	20.6296
24.58	21.5047
24.8	5.28591
25.02	23.9003
25.24	475.796
25.46	12.5074
25.68	28.3534
25.9	6.49165
26.12	2.97264
26.34	14.1936
26.56	16.7771
26.78	11.3051
27	4.37825
27.22	16.4931
27.44	25.5543
27.66	19.4189
27.88	18.1866
28.1	7.4795
28.32	4.8686
28.54	24.8263
28.76	19.0694
28.98	14.5395
29.2	20.6368
29.42	6.26862
29.64	19.2636
29.86	2.19992
30.08	13.7205
30.3	16.8
30.52	6.56678
30.74	16.065
30.96	2.06376
31.18	13.6002
31.4	18.8583
31.62	134.88
31.84	14.8458
32.06	18.299
32.28	17.7953
32.5	14.2064
32.72	7.52661
32.94	6.43866
33.16	9.32719
33.38	12.1119
33.6	18.5729
33.82	3.78498
34.04	18.5827
34.26	3.92195
34.48	4.82722
34.7	26.8976
34.92	3.24225
35.14	39.8958
35.36	0.19878
35.58	0.63166
35.8	7.14949
36.02	13.5334
36.24	6.43429
36.46	3.52345
36.68	33.4522
36.9	14.9467
37.12	15.471
37.34	23.6745
37.56	24.7896
37.78	18.6854
38	3.98338
38.22	17.3308
38.44	2.101
38.66	0.176601
38.88	7.3116
39.1	7.47873
39.32	4.30657
39.54	4.42101
39.76	33.5515
39.98	33.9729
40.2	3.30553
40.42	9.744
40.64	9.60198
40.86	22.5733
41.08	12.827
41.3	10.3729
41.52	12.0363
41.74	4.8389
41.96	17.7974
42.18	5.14125
42.4	6.53702
42.62	28.1871
42.84	23.8214
43.06	8.23246
43.28	19.4357
43.5	3.74248
43.72	17.3057
43.94	13.7954
44.16	5.71618
44.38	4.47424
44.6	23.8644
44.82	23.9064
45.04	35.8175
45.26	61.0157
45.48	17.3008
45.7	13.1521
45.92	10.1374
46.14	20.1978
46.36	13.4456
46.58	17.7726
46.8	11.1884
47.02	0.417137
47.24	4.49053
47.46	3.30022
47.68	25.4472
47.9	8.80468
48.12	26.6038
48.34	12.2264
48.56	24.6321
48.78	38.1413
49	23.3401
49.22	9.11901
49.44	12.3416
49.66	20.1892
49.88	14.1814
50.1	7.28928
50.32	11.4208
50.54	3.93536
50.76	20.3139
50.98	13.2527
51.2	12.4019
51.42	20.5627
51.64	21.4889
51.86	29.5179
52.08	7.54235
52.3	0.144604
52.52	12.4922
52.74	10.9542
52.96	5.95481
53.18	2.93241
53.4	34.4308
53.62	22.0555
53.84	18.269
54.06	16.4508
54.28	24.3359
54.5	7.54389
54.72	16.0031
54.94	3.59222
55.16	19.6937
55.38	9.70801
55.6	8.9685
55.82	6.64673
56.04	7.98144
56.26	16.568
56.48	4.57542
56.7	14.2915
56.92	10.1172
57.14	13.6395
57.36	9.92182
57.58	11.0128
57.8	9.73903
58.02	6.76198
58.24	2.24235
58.46	4.03351
58.68	11.6912
58.9	35.6972
59.12	27.3812
59.34	13.7345
59.56	12.2173
59.78	16.0875
60	19.4359
60.22	7.67034
60.44	10.855
60.66	16.4948
60.88	8.68005
61.1	22.9358
61.32	11.8225
61.54	13.5027
61.76	8.8787
61.98	18.596
62.2	2.17392
62.42	7.28888
62.64	18.3751
62.86	0.7854
63.08	10.7994
63.3	19.9077
63.52	13.6547
63.74	8.47989
63.96	1.06023
64.18	22.0845
64.4	10.0587
64.62	9.71487
64.84	16.0736
65.06	13.7534
65.28	3.02517
65.5	13.6102
65.72	18.5845
65.94	51.6704
66.16	27.5383
66.38	6.29443
66.6	2.37907
66.82	21.6378
67.04	36.8674
67.26	35.8677
67.48	19.728
67.7	18.3562
67.92	23.1312
68.14	15.1888
68.36	5.53809
68.58	11.0392
68.8	4.39478
69.02	22.5678
69.24	14.5084
69.46	19.1193
69.68	6.99056
69.9	23.7845
70.12	13.2376
70.34	9.5914
70.56	20.3192
70.78	18.481
71	18.4345
71.22	10.3763
71.44	15.4426
71.66	21.3285
71.88	10.5521
72.1	23.0397
72.32	0.994129
72.54	12.0713
72.76	1.32747
72.98	21.4794
73.2	9.40123
73.42	8.41892
73.64	20.4781
73.86	24.9126
74.08	12.9232
74.3	16.071
74.52	11.6907
74.74	2.9384
74.96	35.2521
75.18	4.32257
75.4	1.11686
75.62	4.76392
75.84	9.64269
76.06	16.7097
76.28	12.6487
76.5	12.7234
76.72	24.626
76.94	5.62423
77.16	6.52172
77.38	1.46131
77.6	18.3861
77.82	27.9174
78.04	15.15
78.26	20.1744
78.48	6.00925
78.7	12.7938
78.92	4.33943
79.14	15.3367
79.36	7.47749
79.58	26.6088
79.8	10.2557
80.02	25.1146
80.24	19.5734
80.46	15.3913
80.68	5.71815
80.9	6.59771
81.12	7.36948
81.34	26.4379
81.56	29.3481
81.78	5.73675
82	12.5504
82.22	6.53474
82.44	21.1822
82.66	11.3683
82.88	14.6128
83.1	22.9942
83.32	20.1397
83.54	2.60552
83.76	10.2654
83.98	25.2147
84.2	7.02477
84.42	12.06
84.64	13.3615
84.86	13.659
85.08	5.54385
85.3	3.32921
85.52	10.2523
85.74	13.916
85.96	27.4217
86.18	24.4323
86.4	26.3454
86.62	3.53872
86.84	15.2868
87.06	4.16557
87.28	16.4617
87.5	21.4408
87.72	11.4602
87.94	4.53183
88.16	4.55372
88.38	15.2176
88.6	5.39245
88.82	15.9613
89.04	16.0163
89.26	13.5706
89.48	6.88887
89.7	16.9385
89.92	16.1504
