Measurement: Powder, Xray Data XY Processed
Mineral: Clinozoisite
Rruff sample: R040085
Ideal chemistry: Ca_2_Al_3_(Si_2_O_7_)(SiO_4_)O(OH)
Locality: Alamos, Sonora, Mexico
Source: University of Arizona Mineral Museum
Description: Divergent aggregate of red thin prismatic crystals
Diffraction sample description: Powder
Measured chemistry: Ca_2.03_(Al_0.90_Fe_0.13_)_3_(Si_1.00_O_4_)(Si_2.00_O_7_)O(OH)
Cell parameters: a: 8.8783(8) b: 5.6065(4) c: 10.1520(6) alpha: 90. beta: 115.448(5) gamma: 90. volume: 456.30(4) crystal system: monoclinic
x	intensity
5	0
5.22	29.411
5.44	12.816
5.66	10.26
5.88	3.112
6.1	7.57
6.32	21.732
6.54	16.56
6.76	13.175
6.98	21.205
7.2	8.292
7.42	2.383
7.64	10.536
7.86	9.561
8.08	2.051
8.3	2.704
8.52	15.592
8.74	35.86
8.96	46.12
9.18	10.05
9.4	2.481
9.62	23.83
9.84	4.779
10.06	13.323
10.28	18.137
10.5	9.203
10.72	5.555
10.94	13.355
11.16	1.607
11.38	7.893
11.6	15.716
11.82	3.817
12.04	2.154
12.26	3.757
12.48	14.992
12.7	10.8
12.92	1.839
13.14	1.768
13.36	4.134
13.58	5.217
13.8	9.343
14.02	8.453
14.24	11.537
14.46	13.135
14.68	9.482
14.9	10.874
15.12	8.037
15.34	5.377
15.56	3.285
15.78	4.077
16	2.248
16.22	0.573
16.44	8.48
16.66	15.436
16.88	3.67
17.1	4.334
17.32	13.312
17.54	5.994
17.76	70.71
17.98	30.807
18.2	11.388
18.42	7.019
18.64	13.32
18.86	15.095
19.08	21.101
19.3	17.907
19.52	8.679
19.74	15.457
19.96	17.684
20.18	9.145
20.4	4.787
20.62	10.426
20.84	11.744
21.06	9.845
21.28	4.105
21.5	4.094
21.72	18.178
21.94	10.996
22.16	51.788
22.38	43.387
22.6	16.606
22.82	2.283
23.04	16.807
23.26	9.786
23.48	11.967
23.7	44.606
23.92	2.336
24.14	12.451
24.36	16.675
24.58	20.601
24.8	5.076
25.02	11.004
25.24	9.481
25.46	15.801
25.68	57.061
25.9	10.503
26.12	18.648
26.34	13.906
26.56	8.335
26.78	54.331
27	7.273
27.22	8.79
27.44	12.959
27.66	0.243
27.88	75.604
28.1	9.675
28.32	0.544
28.54	2.276
28.76	17.995
28.98	2.158
29.2	12.042
29.42	31.752
29.64	9.008
29.86	7.479
30.08	7.637
30.3	15.637
30.52	0.943
30.74	47.22
30.96	181.483
31.18	16.758
31.4	19.437
31.62	4.52
31.84	26.511
32.06	27.941
32.28	35.362
32.5	4.597
32.72	3.209
32.94	2.817
33.16	19.415
33.38	67.146
33.6	46.803
33.82	21.691
34.04	10.623
34.26	10.951
34.48	20.563
34.7	71.188
34.92	15.004
35.14	14.656
35.36	9.615
35.58	29.984
35.8	7.305
36.02	6.566
36.24	7.955
36.46	3.706
36.68	16.345
36.9	6.772
37.12	10.711
37.34	15.082
37.56	78.553
37.78	39.761
38	13.151
38.22	8.518
38.44	9.979
38.66	2.123
38.88	15.68
39.1	24.226
39.32	50.352
39.54	10.14
39.76	6.752
39.98	6.866
40.2	13.745
40.42	2.946
40.64	6.673
40.86	18.189
41.08	17.152
41.3	5.622
41.52	8.909
41.74	39.52
41.96	40.936
42.18	1.462
42.4	9.974
42.62	17.871
42.84	52.187
43.06	73.284
43.28	2.238
43.5	4.497
43.72	5.333
43.94	21.463
44.16	2.486
44.38	11.517
44.6	2.561
44.82	26.998
45.04	3.909
45.26	8.5
45.48	23.541
45.7	1.704
45.92	13.29
46.14	18.36
46.36	4.501
46.58	16.06
46.8	23.628
47.02	0.794
47.24	4.804
47.46	12.708
47.68	24.448
47.9	10.529
48.12	4.526
48.34	1.903
48.56	61.058
48.78	54.811
49	10.832
49.22	12.038
49.44	9.883
49.66	13.274
49.88	16.898
50.1	7.177
50.32	1.56
50.54	7.133
50.76	13.279
50.98	4.05
51.2	4.541
51.42	12.707
51.64	28.559
51.86	12.489
52.08	5.513
52.3	4.14
52.52	15.947
52.74	8.609
52.96	12.478
53.18	7.369
53.4	6.416
53.62	8.751
53.84	16.334
54.06	7.935
54.28	3.798
54.5	11.785
54.72	4.211
54.94	7.822
55.16	13.43
55.38	14.88
55.6	2.385
55.82	4.969
56.04	8.897
56.26	95.404
56.48	39.669
56.7	48.077
56.92	17.385
57.14	5.757
57.36	12.405
57.58	7.746
57.8	15.11
58.02	7.091
58.24	21.654
58.46	5.351
58.68	28.762
58.9	6.765
59.12	7.212
59.34	2.399
59.56	16.882
59.78	9.695
60	20.129
60.22	17.211
60.44	18.861
60.66	6.128
60.88	6.145
61.1	5.184
61.32	1.697
61.54	13.879
61.76	7.505
61.98	2.752
62.2	3.146
62.42	8.474
62.64	9.263
62.86	6.262
63.08	1.804
63.3	0.97
63.52	7.598
63.74	7.247
63.96	21.981
64.18	20.392
64.4	16.977
64.62	11.761
64.84	3.288
65.06	6.12
65.28	4.461
65.5	4.278
65.72	19.151
65.94	9.139
66.16	4.074
66.38	9.049
66.6	15.108
66.82	17.831
67.04	17.352
67.26	31.395
67.48	17.697
67.7	11.494
67.92	6.733
68.14	11.108
68.36	6.564
68.58	6.096
68.8	15.181
69.02	4.182
69.24	4.32
69.46	1.095
69.68	4.228
69.9	7.39
70.12	15.966
70.34	11.126
70.56	12.479
70.78	2.487
71	6.452
71.22	7.846
71.44	13.986
71.66	8.999
71.88	10.842
72.1	14.64
72.32	2.256
72.54	7.927
72.76	11.282
72.98	21.937
73.2	12.486
73.42	13.932
73.64	0.523
73.86	13.32
74.08	10.127
74.3	2.958
74.52	7.859
74.74	22.135
74.96	9.314
75.18	7.023
75.4	36.184
75.62	4.442
75.84	3.706
76.06	7.906
76.28	10.289
76.5	14.756
76.72	10.44
76.94	4.681
77.16	3.009
77.38	8.236
77.6	8.478
77.82	16.392
78.04	8.941
78.26	0.911
78.48	5.26
78.7	16.311
78.92	6.12
79.14	10.191
79.36	11.587
79.58	9.508
79.8	0.203
80.02	3.795
80.24	4.233
80.46	4.732
80.68	17.682
80.9	15.481
81.12	12.234
81.34	5.182
81.56	8.954
81.78	7.876
82	9.017
82.22	11.136
82.44	18.356
82.66	3.345
82.88	1.272
83.1	1.154
83.32	22.027
83.54	2.227
83.76	12.634
83.98	5.807
84.2	13.712
84.42	10.788
84.64	11.04
84.86	9.986
85.08	1.88
85.3	10.622
85.52	4.602
85.74	6.426
85.96	3.243
86.18	9.171
86.4	7.092
86.62	11.871
86.84	11.129
87.06	11.615
87.28	8.661
87.5	10.408
87.72	8.383
87.94	17.695
88.16	8.937
88.38	12.416
88.6	3.566
88.82	7.023
89.04	10.741
89.26	11.373
89.48	2.241
89.7	14.89
89.92	15.765
