Measurement: Powder, Xray Data XY Processed
Mineral: Clinohumite
Rruff sample: R060559
Ideal chemistry: Mg_9_(SiO_4_)_4_F_2_
Locality: Tadjikistan
Source: Gemological Institute of America
Description: Yellowish-brown fragment
Diffraction sample description: Powder
Measured chemistry: (Mg_8.51_Ti_0.24_[box]_0.24_Fe_0.01_)_Σ=9_(Si_1.00_O_4_)_4_(F_1.30_(OH)_0.70_)_Σ=2_ ; OH by difference and stoichiometry
Cell parameters: a: 4.7392(1) b: 10.2445(6) c: 13.6483(5) alpha: 100.911(6) beta: 90. gamma: 90. volume: 650.67(4) crystal system: monoclinic
x	intensity
5	0
5.22	5.6777
5.44	11.8846
5.66	8.578
5.88	6.1673
6.1	17.2877
6.32	7.47913
6.54	8.65329
6.76	0.252582
6.98	1.1598
7.2	6.03096
7.42	7.00251
7.64	9.98642
7.86	6.39659
8.08	6.8323
8.3	2.29007
8.52	7.07561
8.74	1.71724
8.96	6.27777
9.18	14.8531
9.4	5.62185
9.62	4.14234
9.84	6.54299
10.06	4.97974
10.28	6.11489
10.5	0.742577
10.72	4.01334
10.94	6.93781
11.16	12.802
11.38	5.74363
11.6	0.11385
11.82	5.869
12.04	3.81776
12.26	9.828
12.48	3.7292
12.7	5.91883
12.92	10.0285
13.14	11.3507
13.36	4.67078
13.58	9.96881
13.8	6.99994
14.02	5.10353
14.24	3.49292
14.46	0.249329
14.68	0.109072
14.9	6.0281
15.12	6.0811
15.34	2.47541
15.56	6.48871
15.78	5.38447
16	4.42538
16.22	1.23128
16.44	3.29133
16.66	0.916584
16.88	10.9899
17.1	5.9597
17.32	2.06028
17.54	0.109389
17.76	21.8715
17.98	5.8835
18.2	1.01752
18.42	3.96393
18.64	4.98156
18.86	4.94173
19.08	1.98101
19.3	3.05774
19.52	0.130369
19.74	8.31296
19.96	20.3157
20.18	6.32065
20.4	0.258415
20.62	2.20317
20.84	6.20411
21.06	4.20159
21.28	22.16
21.5	0.806164
21.72	2.19469
21.94	6.07408
22.16	3.72198
22.38	6.70528
22.6	4.83876
22.82	0.720374
23.04	66.6161
23.26	4.51366
23.48	2.63751
23.7	2.79306
23.92	10.6591
24.14	86.887
24.36	6.96283
24.58	3.94253
24.8	0.262175
25.02	4.58166
25.24	1.29712
25.46	0.642064
25.68	43.7718
25.9	66.5926
26.12	0.672526
26.34	2.6694
26.56	1.29159
26.78	2.34922
27	10.5279
27.22	6.76784
27.44	7.85309
27.66	38.9507
27.88	7.14598
28.1	3.28781
28.32	7.4412
28.54	0.747991
28.76	2.35479
28.98	1.4306
29.2	9.70401
29.42	2.64636
29.64	5.47689
29.86	6.59879
30.08	11.7904
30.3	4.6784
30.52	6.51301
30.74	21.3108
30.96	5.36492
31.18	2.81894
31.4	6.9554
31.62	3.5107
31.84	4.4414
32.06	0.727454
32.28	12.1597
32.5	116.519
32.72	55.4973
32.94	7.13081
33.16	3.23193
33.38	5.97238
33.6	12.863
33.82	8.79912
34.04	0.723742
34.26	7.44731
34.48	135.233
34.7	6.04743
34.92	5.01089
35.14	10.2155
35.36	177.605
35.58	11.8379
35.8	84.9282
36.02	7.60808
36.24	8.71404
36.46	5.82388
36.68	0.033415
36.9	0.046463
37.12	2.10343
37.34	18.1924
37.56	18.9179
37.78	27.0643
38	4.55963
38.22	57.7703
38.44	9.32984
38.66	4.16851
38.88	4.98693
39.1	36.7902
39.32	1.31176
39.54	3.60251
39.76	15.4895
39.98	107.147
40.2	36.0177
40.42	13.5537
40.64	6.65586
40.86	16.637
41.08	1.86878
41.3	30.2272
41.52	3.62557
41.74	1.02083
41.96	12.3848
42.18	5.77405
42.4	8.98958
42.62	1.37636
42.84	3.22819
43.06	7.0553
43.28	4.29233
43.5	24.4069
43.72	9.60444
43.94	7.56301
44.16	0.134239
44.38	4.78082
44.6	10.7474
44.82	7.87836
45.04	0.928696
45.26	3.84853
45.48	4.73918
45.7	4.57256
45.92	3.36797
46.14	4.27376
46.36	3.16229
46.58	5.80821
46.8	13.8395
47.02	7.20751
47.24	12.0905
47.46	9.87812
47.68	7.10817
47.9	7.34494
48.12	5.44624
48.34	4.53593
48.56	13.7542
48.78	5.88132
49	6.94645
49.22	3.0724
49.44	1.92079
49.66	1.93199
49.88	2.95584
50.1	4.80942
50.32	1.51921
50.54	1.28637
50.76	14.0099
50.98	12.7672
51.2	8.53491
51.42	6.26172
51.64	9.80573
51.86	0.415478
52.08	5.2141
52.3	9.11105
52.52	164.026
52.74	30.0481
52.96	3.40463
53.18	3.45342
53.4	0.503078
53.62	7.59111
53.84	4.93026
54.06	5.19097
54.28	7.34197
54.5	29.6765
54.72	22.0796
54.94	13.2634
55.16	3.28585
55.38	3.30961
55.6	7.36217
55.82	5.44392
56.04	3.47262
56.26	6.35224
56.48	12.2427
56.7	9.61429
56.92	12.7056
57.14	44.3675
57.36	6.36818
57.58	10.4172
57.8	6.23454
58.02	1.89427
58.24	4.93004
58.46	5.76962
58.68	4.61608
58.9	1.42351
59.12	0.859671
59.34	2.38012
59.56	5.05943
59.78	1.28697
60	4.35922
60.22	10.2266
60.44	23.0901
60.66	1.97149
60.88	0.165481
61.1	1.68004
61.32	7.57378
61.54	19.4959
61.76	31.4614
61.98	2.11828
62.2	11.2215
62.42	49.1781
62.64	39.4248
62.86	80.7273
63.08	14.1786
63.3	2.49092
63.52	7.79516
63.74	4.30382
63.96	3.58893
64.18	6.91979
64.4	1.12826
64.62	4.00052
64.84	5.32533
65.06	4.227
65.28	13.36
65.5	8.14249
65.72	4.06809
65.94	5.92544
66.16	1.67324
66.38	7.5594
66.6	12.4154
66.82	6.52418
67.04	14.3723
67.26	3.02848
67.48	3.10909
67.7	2.99249
67.92	0.959401
68.14	2.11203
68.36	5.40129
68.58	4.54349
68.8	3.58231
69.02	3.54164
69.24	6.3973
69.46	1.40017
69.68	2.53828
69.9	34.4538
70.12	24.6733
70.34	4.87973
70.56	9.87559
70.78	1.68081
71	2.71786
71.22	2.80396
71.44	5.0205
71.66	8.1126
71.88	13.2988
72.1	9.35087
72.32	1.39125
72.54	3.39829
72.76	7.29198
72.98	1.38883
73.2	1.47647
73.42	3.54648
73.64	7.87006
73.86	4.88206
74.08	5.87973
74.3	5.65747
74.52	9.57565
74.74	5.44413
74.96	4.2553
75.18	2.22171
75.4	9.20846
75.62	3.0864
75.84	3.96784
76.06	0.480431
76.28	0.460335
76.5	1.51274
76.72	1.44955
76.94	2.46273
77.16	8.65376
77.38	0.268807
77.6	1.89775
77.82	8.86303
78.04	3.26126
78.26	1.49248
78.48	2.64258
78.7	2.85892
78.92	1.99202
79.14	11.0466
79.36	4.0461
79.58	4.92315
79.8	1.1383
80.02	5.61543
80.24	5.47111
80.46	3.17526
80.68	6.02364
80.9	5.9151
81.12	3.65641
81.34	4.6055
81.56	8.76586
81.78	7.00889
82	0.024379
82.22	5.13022
82.44	0.246676
82.66	2.43414
82.88	2.40953
83.1	8.28268
83.32	7.30444
83.54	0.375599
83.76	4.42184
83.98	10.2242
84.2	3.02731
84.42	9.77031
84.64	3.37118
84.86	10.4001
85.08	7.12975
85.3	1.99667
85.52	4.96146
85.74	15.932
85.96	22.7502
86.18	0.969732
86.4	12.0382
86.62	13.3322
86.84	2.50149
87.06	3.79618
87.28	2.03536
87.5	7.2787
87.72	0.549996
87.94	4.56055
88.16	3.41826
88.38	2.56372
88.6	0.421719
88.82	4.40116
89.04	10.3933
89.26	8.35216
89.48	11.408
89.7	8.50534
89.92	0.403399
