Measurement: Powder, Xray Data XY Processed
Mineral: Clinoclase
Rruff sample: R070092
Ideal chemistry: Cu^2+^_3_As^5+^O_4_(OH)_3_
Locality: Majuba Hill, Antelope District, Pershing County, Nevada, USA
Source: James Shigley
Description: Rich area of dark blue-green prismatic crystals
Diffraction sample description: Powder
Measured chemistry: (Cu_2.97_Al_0.02_[box]_0.01_)_Σ=3_(As_0.99_P_0.01_)_Σ=1_O_4_(OH)_3_ ; trace amounts of Fe and Zn; OH estimated by difference and charge balance
Cell parameters: a: 7.2697(2) b: 6.4595(4) c: 12.397(1) alpha: 90 beta: 99.492(8) gamma: 90 volume: 574.18(5) crystal system: monoclinic
x	intensity
5	0
5.22	2.72422
5.44	25.2936
5.66	14.0467
5.88	12.6498
6.1	14.4203
6.32	21.3317
6.54	34.4534
6.76	19.2344
6.98	24.3831
7.2	22.121
7.42	16.8325
7.64	11.9123
7.86	2.88845
8.08	19.3906
8.3	16.123
8.52	25.3409
8.74	12.4629
8.96	13.0566
9.18	3.14759
9.4	1.25349
9.62	14.0711
9.84	24.9994
10.06	18.8732
10.28	20.5165
10.5	31.8075
10.72	27.2407
10.94	17.5197
11.16	43.7217
11.38	18.5282
11.6	0.158295
11.82	13.3367
12.04	12.1375
12.26	131.363
12.48	55.2123
12.7	23.1038
12.92	3.89677
13.14	16.1813
13.36	9.5228
13.58	25.8655
13.8	29.7857
14.02	17.9429
14.24	18.9035
14.46	240.859
14.68	45.874
14.9	7.19447
15.12	2.18264
15.34	3.19123
15.56	20.2727
15.78	0.899879
16	11.1164
16.22	11.5427
16.44	30.1416
16.66	30.138
16.88	4.48834
17.1	1.56532
17.32	6.15553
17.54	12.8632
17.76	17.6127
17.98	12.0359
18.2	6.78476
18.42	21.8679
18.64	27.7223
18.86	21.3858
19.08	89.0918
19.3	36.7346
19.52	25.4253
19.74	14.5818
19.96	28.5783
20.18	3.83733
20.4	32.6307
20.62	675.351
20.84	33.4881
21.06	23.3333
21.28	3.86274
21.5	24.4099
21.72	3.49709
21.94	8.59808
22.16	33.2056
22.38	71.797
22.6	15.562
22.82	9.81474
23.04	30.1649
23.26	3.65599
23.48	18.7555
23.7	5.85825
23.92	24.742
24.14	34.9079
24.36	6.83786
24.58	83.0496
24.8	2636.42
25.02	204.278
25.24	54.2332
25.46	10.8198
25.68	44.5418
25.9	13.1087
26.12	10.7225
26.34	19.4447
26.56	3.5208
26.78	15.8329
27	18.7204
27.22	17.5771
27.44	4.97496
27.66	36.0761
27.88	16.5729
28.1	33.0809
28.32	129.354
28.54	907.072
28.76	41.1269
28.98	8.92967
29.2	240.735
29.42	26.1619
29.64	12.1181
29.86	220.326
30.08	86.2581
30.3	42.8931
30.52	102.644
30.74	175.048
30.96	158.377
31.18	13.1255
31.4	26.706
31.62	26.967
31.84	31.9232
32.06	8.01681
32.28	4.95912
32.5	45.5701
32.72	3.4596
32.94	38.5605
33.16	30.3663
33.38	26.4173
33.6	44.7206
33.82	113.585
34.04	12.5086
34.26	27.4845
34.48	20.8671
34.7	8.36361
34.92	10.7581
35.14	30.954
35.36	110.997
35.58	43.9916
35.8	30.9809
36.02	14.7987
36.24	15.7133
36.46	111.983
36.68	16.1031
36.9	8.86822
37.12	0.865105
37.34	23.3693
37.56	97.2799
37.78	50.7987
38	0.881912
38.22	24.4234
38.44	6.12694
38.66	47.4696
38.88	62.791
39.1	99.5502
39.32	14.7192
39.54	2.20728
39.76	115.938
39.98	45.4622
40.2	291.431
40.42	32.4318
40.64	6.7015
40.86	30.0818
41.08	10.1471
41.3	20.9235
41.52	3.28966
41.74	26.2578
41.96	62.4941
42.18	132.099
42.4	5.86946
42.62	20.6368
42.84	173.369
43.06	86.7558
43.28	32.5743
43.5	20.8065
43.72	8.53097
43.94	16.534
44.16	204.074
44.38	67.077
44.6	22.8117
44.82	22.9289
45.04	17.8177
45.26	23.4295
45.48	2.42013
45.7	1.93345
45.92	24.4396
46.14	24.4479
46.36	6.3538
46.58	6.73871
46.8	6.03437
47.02	8.69199
47.24	15.4572
47.46	12.8043
47.68	38.3546
47.9	14.9462
48.12	10.0957
48.34	0.37574
48.56	5.93094
48.78	1.61194
49	21.3231
49.22	37.7465
49.44	20.0453
49.66	42.1287
49.88	16.9879
50.1	3.45062
50.32	1.99164
50.54	67.7371
50.76	56.0878
50.98	28.0775
51.2	24.4075
51.42	13.1384
51.64	8.89429
51.86	17.5164
52.08	9.756
52.3	12.3113
52.52	26.4256
52.74	69.3221
52.96	133.477
53.18	47.2684
53.4	7.49883
53.62	15.9563
53.84	24.816
54.06	18.9081
54.28	58.291
54.5	58.7838
54.72	42.3652
54.94	46.3245
55.16	4.71584
55.38	46.0267
55.6	48.0915
55.82	78.2009
56.04	50.5592
56.26	26.0744
56.48	26.3812
56.7	3.89993
56.92	65.7844
57.14	13.6861
57.36	9.12707
57.58	26.7926
57.8	9.2507
58.02	25.0709
58.24	65.4996
58.46	18.4311
58.68	12.3643
58.9	0.8535
59.12	21.7241
59.34	22.1023
59.56	26.5928
59.78	32.3742
60	25.651
60.22	65.013
60.44	21.689
60.66	22.0735
60.88	32.8669
61.1	24.3472
61.32	11.7618
61.54	24.602
61.76	8.897
61.98	1.83747
62.2	66.2375
62.42	51.6322
62.64	27.1829
62.86	27.5145
63.08	38.497
63.3	7.32129
63.52	4.283
63.74	2.14057
63.96	15.0223
64.18	59.2309
64.4	17.5212
64.62	22.0504
64.84	30.8612
65.06	53.6335
65.28	16.7391
65.5	33.3866
65.72	38.6289
65.94	50.187
66.16	53.7655
66.38	17.8653
66.6	12.3943
66.82	14.9362
67.04	33.7617
67.26	16.8373
67.48	2.83251
67.7	13.5321
67.92	21.1776
68.14	30.324
68.36	1.83839
68.58	16.8901
68.8	3.65382
69.02	17.3197
69.24	12.6379
69.46	22.5526
69.68	22.0616
69.9	18.6299
70.12	2.38184
70.34	18.0239
70.56	4.63923
70.78	7.28979
71	23.3211
71.22	15.6558
71.44	21.7712
71.66	13.2816
71.88	17.4587
72.1	12.8319
72.32	40.6588
72.54	29.4213
72.76	22.1866
72.98	5.76354
73.2	0.493332
73.42	10.2489
73.64	11.3958
73.86	32.8033
74.08	10.5836
74.3	25.1021
74.52	17.24
74.74	10.599
74.96	4.87927
75.18	26.1249
75.4	18.9797
75.62	12.8406
75.84	1.61561
76.06	11.6749
76.28	29.9485
76.5	3.98773
76.72	18.5044
76.94	22.4826
77.16	13.5018
77.38	14.5272
77.6	22.9674
77.82	14.528
78.04	35.1079
78.26	18.5386
78.48	11.3974
78.7	31.6623
78.92	13.5801
79.14	15.6008
79.36	17.4701
79.58	0.67231
79.8	19.538
80.02	5.76593
80.24	25.7616
80.46	15.0816
80.68	24.213
80.9	22.4547
81.12	40.8024
81.34	3.40114
81.56	4.49551
81.78	3.0229
82	19.7333
82.22	36.8896
82.44	5.59062
82.66	11.0498
82.88	8.57375
83.1	24.0073
83.32	23.9337
83.54	18.7348
83.76	20.6935
83.98	23.6194
84.2	3.7749
84.42	0.267952
84.64	4.10243
84.86	1.84037
85.08	27.9714
85.3	4.51138
85.52	8.0313
85.74	41.9277
85.96	17.5913
86.18	26.5343
86.4	1.48151
86.62	15.3486
86.84	44.9771
87.06	26.2452
87.28	13.2329
87.5	6.13461
87.72	13.2199
87.94	5.04534
88.16	6.42683
88.38	10.916
88.6	24.7139
88.82	34.6211
89.04	13.7478
89.26	3.7813
89.48	30.0877
89.7	19.2084
89.92	20.1734
