Measurement: Powder, Xray Data XY Processed
Mineral: Clinozoisite
Rruff sample: R060284
Ideal chemistry: Ca_2_Al_3_(Si_2_O_7_)(SiO_4_)O(OH)
Locality: near Zagi Mountain, Khaffor Dehri, North-West Frontier Province, Pakistan
Source: Herb Obodda
Description: Greenish-brown fragment of a prismatic crystal
Diffraction sample description: Powder
Measured chemistry: Ca_2.00_(Al_0.90_Fe^3+^_0.10_)_3_(Si_1.00_O_4_)(Si_2.00_O_7_)O(OH)
Cell parameters: a: 8.8805(9) b: 5.6020(4) c: 10.150(1) alpha: 90 beta: 115.451(8) gamma: 90 volume: 455.93(5) crystal system: monoclinic
x	intensity
5	0
5.22	14.287
5.44	5.924
5.66	4.198
5.88	1.06
6.1	9.023
6.32	5.006
6.54	1.912
6.76	2.854
6.98	18.185
7.2	8.213
7.42	3.363
7.64	1.668
7.86	5.909
8.08	12.496
8.3	4.624
8.52	11.912
8.74	8.221
8.96	5.439
9.18	4.68
9.4	11.962
9.62	6.192
9.84	4.076
10.06	4.211
10.28	9.382
10.5	2.86
10.72	6.2
10.94	14.514
11.16	14.805
11.38	12.117
11.6	9.918
11.82	6.125
12.04	5.618
12.26	6.045
12.48	7.23
12.7	7.219
12.92	9.189
13.14	1.948
13.36	8.033
13.58	6.006
13.8	15.087
14.02	2.466
14.24	6.538
14.46	10.553
14.68	5.719
14.9	4.917
15.12	9.372
15.34	5.794
15.56	1
15.78	11.303
16	9.478
16.22	7.628
16.44	8.608
16.66	7.324
16.88	0.092
17.1	9.451
17.32	9.021
17.54	9.749
17.76	44.391
17.98	4.411
18.2	14.139
18.42	2.047
18.64	2.652
18.86	14.641
19.08	2.335
19.3	8.091
19.52	7.353
19.74	5.328
19.96	0.66
20.18	7.581
20.4	17.483
20.62	3.535
20.84	7.896
21.06	10.939
21.28	13.971
21.5	2.005
21.72	10.764
21.94	2.56
22.16	45.136
22.38	33.12
22.6	7.947
22.82	1.947
23.04	1.875
23.26	10.736
23.48	4.832
23.7	30.773
23.92	7.946
24.14	10.802
24.36	1.598
24.58	3.741
24.8	8.655
25.02	7.502
25.24	15.202
25.46	1.89
25.68	47.495
25.9	12.331
26.12	9.086
26.34	13.307
26.56	1.637
26.78	3.74
27	3.841
27.22	9.895
27.44	4.985
27.66	8.039
27.88	86.328
28.1	10.509
28.32	10.553
28.54	7.839
28.76	3.79
28.98	12.411
29.2	7.351
29.42	1.159
29.64	6.877
29.86	3.637
30.08	5.325
30.3	14.552
30.52	8.815
30.74	38.582
30.96	121.926
31.18	4.508
31.4	2.435
31.62	17.322
31.84	16.405
32.06	58.339
32.28	28.204
32.5	12.054
32.72	3.264
32.94	4.631
33.16	8.403
33.38	52.377
33.6	19.158
33.82	10.094
34.04	6.371
34.26	1.468
34.48	13.426
34.7	52.651
34.92	8.055
35.14	1.435
35.36	11.87
35.58	21.085
35.8	11.139
36.02	2.867
36.24	17.89
36.46	0.113
36.68	14.752
36.9	9.961
37.12	10.201
37.34	14.772
37.56	29.726
37.78	17.023
38	27.436
38.22	11.325
38.44	9.132
38.66	5.171
38.88	6.296
39.1	10.524
39.32	57.716
39.54	9.148
39.76	5.14
39.98	9.667
40.2	10.142
40.42	4.94
40.64	4.117
40.86	6.152
41.08	0.433
41.3	0.439
41.52	8.375
41.74	8.908
41.96	17.507
42.18	2.182
42.4	5.903
42.62	17.258
42.84	26.652
43.06	47.311
43.28	5.937
43.5	4.85
43.72	5.454
43.94	13.922
44.16	5.025
44.38	6.372
44.6	5.286
44.82	13.664
45.04	11.032
45.26	18.717
45.48	9.007
45.7	3.306
45.92	10.094
46.14	0.387
46.36	6.057
46.58	11.792
46.8	4.258
47.02	3.418
47.24	9.421
47.46	8.347
47.68	2.28
47.9	3.451
48.12	7.668
48.34	12.953
48.56	38.091
48.78	44.3
49	27.495
49.22	2.292
49.44	4.427
49.66	11.797
49.88	3.033
50.1	15.196
50.32	12.196
50.54	10.113
50.76	1.834
50.98	6.474
51.2	3.954
51.42	0.615
51.64	13.749
51.86	14.954
52.08	8.044
52.3	17.756
52.52	23.513
52.74	16.456
52.96	1.493
53.18	5.718
53.4	5.636
53.62	0.566
53.84	10.703
54.06	4.372
54.28	11.11
54.5	13.024
54.72	11.028
54.94	15.868
55.16	7.606
55.38	6.218
55.6	3.924
55.82	4.438
56.04	14.993
56.26	78.511
56.48	14.443
56.7	39.548
56.92	22.071
57.14	12.977
57.36	4.378
57.58	2.485
57.8	8.868
58.02	17.295
58.24	18.852
58.46	1.485
58.68	20.625
58.9	6.686
59.12	3.087
59.34	4.449
59.56	0.608
59.78	3.529
60	18.012
60.22	10.121
60.44	8.078
60.66	3.024
60.88	3.935
61.1	9.277
61.32	9.543
61.54	11.316
61.76	12.234
61.98	0.861
62.2	10.914
62.42	8.626
62.64	4.781
62.86	4.946
63.08	3.7
63.3	6.337
63.52	0.104
63.74	14.863
63.96	23.265
64.18	4.901
64.4	22.168
64.62	13.537
64.84	1.64
65.06	10.979
65.28	14.386
65.5	3.404
65.72	2.315
65.94	13.208
66.16	3.706
66.38	10.641
66.6	10.891
66.82	25.438
67.04	13.441
67.26	14.161
67.48	15.048
67.7	6.921
67.92	0.82
68.14	9.697
68.36	0.558
68.58	3.972
68.8	13.227
69.02	10.508
69.24	10.904
69.46	4.997
69.68	6.531
69.9	13.716
70.12	19.771
70.34	2.92
70.56	5.785
70.78	6.502
71	2.095
71.22	0.896
71.44	4.953
71.66	10.527
71.88	8.435
72.1	13.252
72.32	9.338
72.54	9.284
72.76	4.153
72.98	11.349
73.2	9.151
73.42	5.748
73.64	5.384
73.86	15.381
74.08	8.329
74.3	7.103
74.52	8.071
74.74	10.627
74.96	17.439
75.18	16.297
75.4	7.631
75.62	12.827
75.84	7.037
76.06	9.313
76.28	5.311
76.5	0.508
76.72	10.983
76.94	0.893
77.16	6.364
77.38	8.629
77.6	17.271
77.82	6.145
78.04	9.991
78.26	6.692
78.48	5.405
78.7	0.502
78.92	2.43
79.14	13.322
79.36	0.179
79.58	1.985
79.8	12.398
80.02	5.639
80.24	6.011
80.46	4.484
80.68	1.696
80.9	10.676
81.12	10.688
81.34	1.821
81.56	5.611
81.78	3.931
82	10.324
82.22	7.115
82.44	9.687
82.66	8.49
82.88	8.975
83.1	8.131
83.32	5.065
83.54	5.93
83.76	10.697
83.98	5.758
84.2	2.798
84.42	9.381
84.64	9.7
84.86	5.897
85.08	5.142
85.3	6.393
85.52	3.169
85.74	7.335
85.96	5.465
86.18	11.498
86.4	1.712
86.62	18.631
86.84	10.362
87.06	1.969
87.28	5.599
87.5	8.592
87.72	7.662
87.94	0.08
88.16	4.893
88.38	10.055
88.6	13.441
88.82	9.337
89.04	6.818
89.26	7.417
89.48	8.769
89.7	5.171
89.92	5.264
