Measurement: Powder, Xray Data XY Processed
Mineral: Clinoptilolite-Ca
Rruff sample: R060662
Ideal chemistry: Ca_3_(Si_30_Al_6_)O_72_20H_2_O
Locality: Succor Creek, Malheur County, Oregon, USA
Source: Michael Scott
Description: Group of colorless platy prismatic crystals
Diffraction sample description: Powder
Measured chemistry: (Ca_1.02_Na_0.97_K_0.59_)_Σ=2.58_(Si_14.40_Al_3.60_)_Σ=18_O_36_·10.96H_2_O
Cell parameters: a: 17.665(4) b: 17.948(3) c: 7.4099(9) alpha: 90. beta: 116.41(2) gamma: 90. volume: 2104.0(6) crystal system: monoclinic
x	intensity
5	0
5.22	8.74616
5.44	17.6974
5.66	3.76268
5.88	6.49461
6.1	9.32139
6.32	11.1504
6.54	10.9103
6.76	1.66846
6.98	13.1967
7.2	9.73993
7.42	1.1399
7.64	10.5934
7.86	4.9608
8.08	1.72052
8.3	7.065
8.52	3.33304
8.74	4.59797
8.96	12.4704
9.18	3.78588
9.4	7.16044
9.62	30.1973
9.84	268.504
10.06	36.8849
10.28	12.0495
10.5	5.88434
10.72	4.31763
10.94	9.61199
11.16	13.2505
11.38	5.56457
11.6	13.7243
11.82	4.88836
12.04	2.12395
12.26	0.15677
12.48	1.49215
12.7	5.66327
12.92	9.74233
13.14	21.6366
13.36	19.9857
13.58	2.18663
13.8	0.233183
14.02	1.44304
14.24	1.63791
14.46	4.67525
14.68	2.57324
14.9	5.45575
15.12	8.04786
15.34	2.88273
15.56	5.41686
15.78	5.00704
16	6.80939
16.22	6.62931
16.44	15.3494
16.66	17.2352
16.88	20.2545
17.1	9.10111
17.32	10.7086
17.54	14.1991
17.76	6.08917
17.98	1.10901
18.2	9.11227
18.42	5.30843
18.64	3.66152
18.86	5.20088
19.08	69.3846
19.3	11.1895
19.52	10.3363
19.74	1.37633
19.96	0.555166
20.18	9.35582
20.4	20.8906
20.62	4.15342
20.84	5.07954
21.06	1.44706
21.28	2.34742
21.5	1.92874
21.72	1.42557
21.94	6.85431
22.16	9.15937
22.38	168.797
22.6	57.52
22.82	118.771
23.04	4.41462
23.26	8.91676
23.48	3.71304
23.7	10.3509
23.92	3.6657
24.14	9.88497
24.36	8.09507
24.58	1.84189
24.8	10.0369
25.02	25.879
25.24	9.86322
25.46	15.5473
25.68	9.25363
25.9	13.2255
26.12	36.9755
26.34	30.6516
26.56	6.173
26.78	44.0728
27	12.7418
27.22	9.51868
27.44	3.20157
27.66	0.30608
27.88	5.36208
28.1	23.1096
28.32	7.07406
28.54	19.3068
28.76	11.0429
28.98	4.98783
29.2	5.61249
29.42	7.67475
29.64	2.80829
29.86	32.416
30.08	108.453
30.3	41.5998
30.52	10.2902
30.74	7.35371
30.96	6.40956
31.18	21.7236
31.4	2.9127
31.62	6.14226
31.84	6.30407
32.06	47.4363
32.28	6.95174
32.5	5.41046
32.72	26.0707
32.94	30.3493
33.16	11.8691
33.38	10.4532
33.6	9.37511
33.82	0.907399
34.04	0.784554
34.26	6.73329
34.48	7.49733
34.7	9.29588
34.92	10.3969
35.14	18.9709
35.36	11.5337
35.58	9.10604
35.8	0.838997
36.02	6.88695
36.24	6.8685
36.46	11.4267
36.68	10.0616
36.9	20.4241
37.12	19.4464
37.34	7.3325
37.56	12.3473
37.78	2.40734
38	2.65401
38.22	2.66358
38.44	5.72389
38.66	12.6474
38.88	1.11105
39.1	1.5516
39.32	1.10983
39.54	12.4752
39.76	2.89727
39.98	2.35999
40.2	13.7707
40.42	5.80903
40.64	7.13317
40.86	6.2141
41.08	4.39003
41.3	15.1848
41.52	1.98328
41.74	5.77788
41.96	6.94336
42.18	11.4435
42.4	4.89457
42.62	11.481
42.84	3.3296
43.06	3.0391
43.28	13.1412
43.5	6.04119
43.72	1.04605
43.94	7.04992
44.16	12.1848
44.38	11.2853
44.6	3.73519
44.82	1.78612
45.04	6.69951
45.26	2.75719
45.48	0.209584
45.7	6.61549
45.92	10.535
46.14	12.5898
46.36	13.7135
46.58	8.0782
46.8	12.0845
47.02	2.15129
47.24	2.46282
47.46	2.18269
47.68	4.54444
47.9	9.07591
48.12	9.43318
48.34	7.84206
48.56	0.14371
48.78	14.555
49	14.2864
49.22	12.8101
49.44	4.67478
49.66	7.6268
49.88	12.9723
50.1	0.765884
50.32	10.4972
50.54	1.03248
50.76	9.89049
50.98	19.6941
51.2	13.2482
51.42	8.1745
51.64	7.14419
51.86	0.011124
52.08	4.96033
52.3	18.235
52.52	6.88027
52.74	15.0688
52.96	10.522
53.18	0.740405
53.4	8.0781
53.62	6.62776
53.84	0.095714
54.06	15.2954
54.28	6.44821
54.5	6.6156
54.72	6.61341
54.94	3.16783
55.16	11.2301
55.38	4.12938
55.6	4.51506
55.82	3.41061
56.04	1.91604
56.26	2.01748
56.48	12.1515
56.7	4.27624
56.92	0.245039
57.14	6.27227
57.36	7.3361
57.58	9.60685
57.8	2.55885
58.02	3.19619
58.24	6.17258
58.46	6.45328
58.68	4.50511
58.9	6.45728
59.12	5.8072
59.34	3.90669
59.56	2.96671
59.78	8.25891
60	8.97338
60.22	0.130898
60.44	1.13578
60.66	7.2736
60.88	10.3185
61.1	2.14908
61.32	12.0723
61.54	4.65821
61.76	9.68857
61.98	1.42145
62.2	7.2176
62.42	11.3484
62.64	10.6838
62.86	16.6742
63.08	8.49107
63.3	3.40563
63.52	8.63152
63.74	2.69076
63.96	8.58329
64.18	0.589046
64.4	9.86734
64.62	5.96204
64.84	4.8432
65.06	6.56708
65.28	8.59859
65.5	1.22361
65.72	4.64129
65.94	8.71815
66.16	12.9985
66.38	4.06853
66.6	1.00278
66.82	7.87773
67.04	6.21698
67.26	1.2447
67.48	0.303287
67.7	7.48387
67.92	6.41608
68.14	4.39768
68.36	8.21853
68.58	11.9414
68.8	9.97622
69.02	1.00781
69.24	0.030301
69.46	6.59053
69.68	0.591396
69.9	15.6137
70.12	3.73735
70.34	14.8612
70.56	4.06618
70.78	0.238791
71	3.65334
71.22	2.77082
71.44	2.7699
71.66	10.8305
71.88	6.0089
72.1	6.02093
72.32	10.0353
72.54	10.6584
72.76	2.65026
72.98	11.5556
73.2	3.47987
73.42	1.99917
73.64	3.08564
73.86	8.01367
74.08	8.90372
74.3	5.93886
74.52	2.9519
74.74	0.852046
74.96	2.99301
75.18	8.91233
75.4	5.21442
75.62	1.48806
75.84	9.76995
76.06	16.7676
76.28	7.01207
76.5	1.10554
76.72	5.2124
76.94	5.45807
77.16	4.54127
77.38	6.53597
77.6	8.74795
77.82	20.4781
78.04	9.45322
78.26	4.63572
78.48	5.70122
78.7	8.79291
78.92	7.80858
79.14	5.76039
79.36	7.95361
79.58	0.989305
79.8	9.96887
80.02	9.86072
80.24	8.04492
80.46	6.68039
80.68	8.413
80.9	1.2213
81.12	6.01356
81.34	0.058038
81.56	8.98601
81.78	5.56078
82	6.42656
82.22	2.41583
82.44	6.99801
82.66	1.76727
82.88	4.85977
83.1	9.93493
83.32	0.00864
83.54	5.16747
83.76	12.2264
83.98	3.27349
84.2	10.3415
84.42	5.41646
84.64	1.50644
84.86	3.15068
85.08	2.1988
85.3	3.42453
85.52	1.69555
85.74	3.98197
85.96	5.94358
86.18	7.17669
86.4	7.10138
86.62	6.05395
86.84	8.13185
87.06	4.11468
87.28	3.94753
87.5	6.92608
87.72	9.78816
87.94	5.48818
88.16	9.62886
88.38	10.8041
88.6	0.272808
88.82	5.85155
89.04	7.0076
89.26	7.20564
89.48	4.52829
89.7	6.63327
89.92	7.53817
