Measurement: Powder, Xray Data XY Processed
Mineral: Clinohedrite
Rruff sample: R050416
Ideal chemistry: CaZn^2+^SiO_4_H_2_O
Locality: Franklin, Sussex County, New Jersey, USA
Source: Marcus Origlieri
Description: Colorless prismatic single crystals
Diffraction sample description: Powder
Measured chemistry: (Ca_0.99_Mn_0.01_)_Σ=1_Zn_1.00_Si_1.00_O_4_·H_2_O
Cell parameters: a: 5.1274(2) b: 15.9184(8) c: 5.4185(2) alpha: 90. beta: 103.384(5) gamma: 90. volume: 430.25(3) crystal system: monoclinic
x	intensity
5	0
5.22	22.3295
5.44	9.8554
5.66	8.61865
5.88	6.62843
6.1	9.76107
6.32	15.784
6.54	10.0305
6.76	1.68844
6.98	4.63765
7.2	12.0021
7.42	6.41337
7.64	0.657742
7.86	7.23263
8.08	5.66851
8.3	7.23234
8.52	5.59361
8.74	12.0751
8.96	2.04986
9.18	9.09236
9.4	8.41824
9.62	5.65635
9.84	8.5755
10.06	12.624
10.28	0.506894
10.5	5.68923
10.72	6.73013
10.94	18.9044
11.16	425.171
11.38	11.541
11.6	10.4195
11.82	7.10159
12.04	8.34319
12.26	10.3977
12.48	7.65978
12.7	14.7055
12.92	5.4004
13.14	8.42553
13.36	7.35455
13.58	9.06955
13.8	9.01366
14.02	5.25129
14.24	7.58352
14.46	7.92399
14.68	13.2182
14.9	6.28161
15.12	5.53819
15.34	2.60002
15.56	4.66481
15.78	10.9311
16	6.26889
16.22	9.28374
16.44	6.24625
16.66	4.94584
16.88	8.72297
17.1	5.56929
17.32	3.40509
17.54	0.249668
17.76	5.2652
17.98	0.51077
18.2	9.59854
18.42	6.4942
18.64	101.776
18.86	8.0096
19.08	11.0231
19.3	13.0906
19.52	6.11817
19.74	5.28013
19.96	7.46757
20.18	103.537
20.4	13.4162
20.62	8.84297
20.84	11.7912
21.06	7.33772
21.28	6.95666
21.5	2.83059
21.72	10.925
21.94	18.9277
22.16	47.7606
22.38	56.9396
22.6	7.78584
22.82	1.76898
23.04	5.71795
23.26	0.799923
23.48	6.79329
23.7	9.88833
23.92	6.88084
24.14	6.75696
24.36	6.67801
24.58	89.5955
24.8	6.10076
25.02	2.39718
25.24	3.54065
25.46	3.46619
25.68	11.6265
25.9	8.49027
26.12	4.11563
26.34	5.80508
26.56	4.35284
26.78	7.01141
27	5.72515
27.22	15.1249
27.44	272.917
27.66	12.678
27.88	24.7999
28.1	122.168
28.32	15.4916
28.54	1.93832
28.76	9.48464
28.98	15.8469
29.2	2.07409
29.42	6.48739
29.64	4.6932
29.86	7.88672
30.08	5.4153
30.3	5.14252
30.52	3.24575
30.74	6.84669
30.96	0.365118
31.18	12.8054
31.4	14.3735
31.62	22.2291
31.84	13.1898
32.06	47.0859
32.28	243.792
32.5	8.78619
32.72	10.7886
32.94	5.7339
33.16	1.24474
33.38	12.5406
33.6	5.53669
33.82	53.3738
34.04	110.205
34.26	8.66889
34.48	9.37534
34.7	2.16151
34.92	9.96068
35.14	69.8399
35.36	15.0469
35.58	232.345
35.8	34.8878
36.02	100.309
36.24	10.6851
36.46	1.99909
36.68	1.24517
36.9	8.46884
37.12	2.86197
37.34	8.15846
37.56	1.33037
37.78	93.4009
38	75.434
38.22	9.40438
38.44	6.62871
38.66	24.3361
38.88	5.90921
39.1	1.63531
39.32	6.98783
39.54	6.18362
39.76	6.4361
39.98	5.69447
40.2	6.85232
40.42	3.90498
40.64	13.0741
40.86	7.91655
41.08	24.8297
41.3	12.8311
41.52	1.30645
41.74	9.09451
41.96	6.13631
42.18	2.10991
42.4	5.62285
42.62	1.39641
42.84	62.0984
43.06	9.93737
43.28	6.55946
43.5	7.1683
43.72	79.5794
43.94	15.5034
44.16	0.463314
44.38	6.34277
44.6	7.40154
44.82	10.5226
45.04	27.6034
45.26	42.5419
45.48	91.6447
45.7	27.4983
45.92	7.5862
46.14	5.37233
46.36	7.9822
46.58	10.1606
46.8	2.22759
47.02	3.23168
47.24	7.69136
47.46	2.41716
47.68	0.469762
47.9	11.1635
48.12	5.83409
48.34	0.148982
48.56	19.2982
48.78	73.5939
49	29.2641
49.22	7.06534
49.44	4.68613
49.66	9.18822
49.88	3.63966
50.1	8.87013
50.32	31.1853
50.54	3.59395
50.76	6.78186
50.98	2.33806
51.2	10.8599
51.42	22.2746
51.64	15.0482
51.86	5.45789
52.08	4.38294
52.3	10.1489
52.52	8.16885
52.74	3.10361
52.96	6.93246
53.18	6.71705
53.4	72.3304
53.62	12.0651
53.84	9.88424
54.06	10.2565
54.28	14.0506
54.5	6.75573
54.72	4.64729
54.94	1.6629
55.16	8.48223
55.38	8.27319
55.6	2.94821
55.82	1.94026
56.04	2.79255
56.26	17.925
56.48	44.3167
56.7	7.99147
56.92	7.80283
57.14	4.72548
57.36	0.550303
57.58	15.2607
57.8	6.23949
58.02	44.0922
58.24	27.825
58.46	4.25434
58.68	3.43686
58.9	8.23736
59.12	48.5376
59.34	55.4438
59.56	29.0768
59.78	6.08755
60	6.30562
60.22	4.41408
60.44	0.591969
60.66	13.6079
60.88	8.53781
61.1	0.470213
61.32	12.49
61.54	21.3599
61.76	55.4867
61.98	17.2191
62.2	2.00349
62.42	22.3978
62.64	12.7829
62.86	0.275712
63.08	5.95504
63.3	2.77294
63.52	4.0456
63.74	3.45593
63.96	10.6828
64.18	10.8011
64.4	11.0652
64.62	3.56206
64.84	10.287
65.06	48.0903
65.28	25.8166
65.5	6.64717
65.72	9.28536
65.94	7.67792
66.16	4.65279
66.38	6.74112
66.6	5.00218
66.82	5.94425
67.04	1.86317
67.26	18.9864
67.48	21.0317
67.7	9.04028
67.92	0.862395
68.14	5.83104
68.36	11.4561
68.58	23.1573
68.8	27.8957
69.02	10.4442
69.24	4.08374
69.46	4.116
69.68	17.886
69.9	5.80463
70.12	9.79658
70.34	11.8923
70.56	6.99705
70.78	11.0057
71	4.32208
71.22	8.90644
71.44	6.35847
71.66	7.5283
71.88	2.8468
72.1	2.10065
72.32	4.42485
72.54	2.87835
72.76	27.2969
72.98	9.12705
73.2	8.02984
73.42	2.93228
73.64	2.59269
73.86	2.31287
74.08	12.1189
74.3	9.9413
74.52	7.00921
74.74	5.95858
74.96	14.4212
75.18	8.27672
75.4	5.28513
75.62	8.33862
75.84	1.58616
76.06	1.61555
76.28	4.00912
76.5	12.2461
76.72	10.5218
76.94	5.70934
77.16	1.93395
77.38	13.1627
77.6	9.84049
77.82	7.18928
78.04	3.57546
78.26	8.68065
78.48	8.81023
78.7	1.9086
78.92	8.16948
79.14	4.53067
79.36	3.73561
79.58	6.60237
79.8	6.44938
80.02	14.0691
80.24	1.17379
80.46	7.9423
80.68	8.71893
80.9	1.47397
81.12	7.26684
81.34	1.95746
81.56	3.55919
81.78	4.08099
82	11.0759
82.22	8.37635
82.44	7.3125
82.66	7.4732
82.88	7.42134
83.1	0.384281
83.32	2.37373
83.54	0.322314
83.76	0.73815
83.98	5.16681
84.2	9.11608
84.42	15.1297
84.64	13.9235
84.86	6.85828
85.08	3.94371
85.3	6.9574
85.52	0.064951
85.74	3.30641
85.96	5.65037
86.18	11.7541
86.4	16.862
86.62	3.0623
86.84	3.00689
87.06	4.33583
87.28	5.83016
87.5	15.8876
87.72	6.95591
87.94	4.99467
88.16	0.102509
88.38	6.7582
88.6	6.94189
88.82	6.12817
89.04	3.21651
89.26	3.95664
89.48	1.21159
89.7	0.218369
89.92	1.82608
