Measurement: Powder, Xray Data XY Processed
Mineral: Clinohumite
Rruff sample: R040122
Ideal chemistry: Mg_9_(SiO_4_)_4_F_2_
Locality: Anzahamazonono,  Madagascar
Source: University of Arizona Mineral Museum
Description: Orange-brown blebs embedded in calcite matrix
Diffraction sample description: Powder
Measured chemistry: (Mg_0.96_Fe_0.02_Ti_0.01_Ca_0.01_)_9_(SiO_4_)_4_(F_0.59_(OH)_0.41_)_2_
Cell parameters: a: 4.7428(4) b: 10.239(2) c: 13.6355(8) alpha: 100.83(1) beta: 90. gamma: 90. volume: 650.4(1) crystal system: monoclinic
x	intensity
5	0
5.22	0.871147
5.44	11.715
5.66	16.3443
5.88	11.3021
6.1	11.5641
6.32	3.7849
6.54	7.15329
6.76	5.54034
6.98	4.58668
7.2	9.84077
7.42	16.2975
7.64	6.42531
7.86	5.79699
8.08	6.23585
8.3	2.59333
8.52	5.15412
8.74	15.5141
8.96	7.39489
9.18	7.88521
9.4	0.223089
9.62	9.32017
9.84	3.39659
10.06	0.469759
10.28	7.83725
10.5	1.78206
10.72	13.8374
10.94	0.413851
11.16	16.8505
11.38	2.21313
11.6	11.8504
11.82	12.9566
12.04	11.038
12.26	7.83981
12.48	6.66892
12.7	11.3613
12.92	8.30668
13.14	6.11277
13.36	10.2516
13.58	9.87047
13.8	6.34488
14.02	3.44778
14.24	17.3679
14.46	1.46277
14.68	4.50688
14.9	0.447955
15.12	7.36053
15.34	2.4865
15.56	12.7079
15.78	9.62091
16	12.4565
16.22	6.79494
16.44	2.51539
16.66	9.09077
16.88	6.50034
17.1	0.743428
17.32	5.4439
17.54	9.20623
17.76	334.191
17.98	5.67034
18.2	5.28909
18.42	1.29437
18.64	11.1398
18.86	7.07013
19.08	4.04365
19.3	22.1763
19.52	0.051144
19.74	15.9489
19.96	16.3969
20.18	11.9999
20.4	8.01266
20.62	10.1543
20.84	5.07198
21.06	6.30528
21.28	21.1328
21.5	10.0751
21.72	2.28144
21.94	14.2203
22.16	1.8605
22.38	9.49473
22.6	10.695
22.82	6.47354
23.04	96.019
23.26	3.74369
23.48	12.4546
23.7	8.60588
23.92	10.9145
24.14	190.899
24.36	9.28835
24.58	10.0986
24.8	6.06142
25.02	0.853609
25.24	0.011932
25.46	6.08071
25.68	68.986
25.9	65.0668
26.12	7.49195
26.34	2.63127
26.56	4.70572
26.78	15.4148
27	6.02921
27.22	19.3693
27.44	12.998
27.66	41.1812
27.88	12.3305
28.1	3.64513
28.32	2.29961
28.54	3.25635
28.76	10.3947
28.98	11.481
29.2	13.6061
29.42	6.19837
29.64	0.298748
29.86	9.5223
30.08	28.096
30.3	2.61371
30.52	17.3536
30.74	16.1557
30.96	12.4246
31.18	0.927235
31.4	8.8151
31.62	5.4532
31.84	9.39503
32.06	5.30651
32.28	38.5102
32.5	847.842
32.72	60.1628
32.94	8.80561
33.16	4.57637
33.38	10.5579
33.6	1.6198
33.82	0.193718
34.04	6.95278
34.26	13.819
34.48	71.5865
34.7	5.38295
34.92	6.29758
35.14	18.205
35.36	117.055
35.58	23.8796
35.8	130.618
36.02	18.5259
36.24	6.75013
36.46	8.02666
36.68	15.2953
36.9	12.693
37.12	10.8101
37.34	20.0004
37.56	30.3571
37.78	28.3882
38	10.7474
38.22	215.463
38.44	11.9804
38.66	5.78751
38.88	0.598593
39.1	84.3971
39.32	6.66771
39.54	7.85875
39.76	4.73333
39.98	203.34
40.2	49.3166
40.42	6.14277
40.64	5.81822
40.86	16.8066
41.08	8.42803
41.3	18.8476
41.52	7.33154
41.74	1.5467
41.96	28.2081
42.18	7.50617
42.4	9.68946
42.62	2.88431
42.84	5.31401
43.06	19.5452
43.28	9.70218
43.5	17.512
43.72	9.5745
43.94	3.71991
44.16	8.9411
44.38	10.6341
44.6	12.0017
44.82	10.1694
45.04	11.4468
45.26	3.89028
45.48	5.15213
45.7	10.1322
45.92	7.17056
46.14	1.81045
46.36	4.03296
46.58	11.3695
46.8	14.6172
47.02	5.4947
47.24	2.56077
47.46	13.3004
47.68	8.7159
47.9	9.31429
48.12	12.5401
48.34	9.76432
48.56	14.0223
48.78	2.00572
49	1.10451
49.22	4.09417
49.44	10.9085
49.66	3.42023
49.88	9.3637
50.1	6.20996
50.32	1.93364
50.54	1.47186
50.76	22.0198
50.98	19.7139
51.2	8.41179
51.42	1.86822
51.64	19.7413
51.86	2.4476
52.08	4.46619
52.3	16.6759
52.52	407.927
52.74	57.1812
52.96	3.44905
53.18	5.2775
53.4	8.61666
53.62	7.91089
53.84	11.0629
54.06	16.9577
54.28	18.03
54.5	24.2765
54.72	12.5491
54.94	12.4262
55.16	7.24299
55.38	2.16613
55.6	8.06167
55.82	4.00242
56.04	7.97564
56.26	3.02587
56.48	2.47459
56.7	14.8833
56.92	14.6789
57.14	20.548
57.36	6.69878
57.58	0.84976
57.8	6.26066
58.02	6.28955
58.24	12.1449
58.46	6.08716
58.68	1.05909
58.9	10.6516
59.12	4.9718
59.34	47.8182
59.56	13.498
59.78	3.57888
60	11.3866
60.22	26.4069
60.44	65.181
60.66	11.0561
60.88	5.18003
61.1	2.20729
61.32	14.0838
61.54	5.99711
61.76	6.99977
61.98	6.05956
62.2	11.6012
62.42	287.661
62.64	175.859
62.86	63.5321
63.08	27.895
63.3	1.18404
63.52	0.779097
63.74	13.605
63.96	6.03029
64.18	3.40532
64.4	1.00641
64.62	9.06783
64.84	14.4466
65.06	2.51634
65.28	15.0444
65.5	1.95006
65.72	8.44267
65.94	8.29496
66.16	2.06385
66.38	6.8545
66.6	6.6808
66.82	12.2984
67.04	85.5607
67.26	26.8807
67.48	5.14853
67.7	9.41426
67.92	6.50281
68.14	4.18096
68.36	25.8657
68.58	4.01192
68.8	2.13443
69.02	8.11176
69.24	3.87341
69.46	2.96383
69.68	9.49008
69.9	48.4011
70.12	40.7092
70.34	15.1455
70.56	14.1887
70.78	0.506262
71	4.7499
71.22	4.19828
71.44	3.70128
71.66	13.9302
71.88	22.0892
72.1	8.96169
72.32	5.74385
72.54	8.48873
72.76	11.2196
72.98	11.1838
73.2	14.1479
73.42	7.55315
73.64	11.2612
73.86	10.3361
74.08	5.46485
74.3	9.50404
74.52	0.424613
74.74	11.6836
74.96	9.90974
75.18	6.2129
75.4	10.3951
75.62	5.39828
75.84	11.1177
76.06	9.07732
76.28	3.83414
76.5	9.86743
76.72	9.5098
76.94	2.35573
77.16	9.10884
77.38	5.90156
77.6	1.32968
77.82	12.5669
78.04	5.53117
78.26	8.10528
78.48	12.5085
78.7	9.84569
78.92	0.178267
79.14	6.16418
79.36	1.32833
79.58	1.62317
79.8	9.60104
80.02	5.59416
80.24	8.55279
80.46	2.30304
80.68	10.9361
80.9	18.747
81.12	20.838
81.34	24.8534
81.56	0.703754
81.78	5.13553
82	7.89829
82.22	5.90284
82.44	12.8718
82.66	1.05438
82.88	5.96383
83.1	9.89469
83.32	13.9066
83.54	8.44286
83.76	8.40779
83.98	2.42229
84.2	5.48216
84.42	2.44874
84.64	2.30718
84.86	6.21907
85.08	15.8762
85.3	7.24767
85.52	4.65714
85.74	18.5216
85.96	33.7334
86.18	11.7656
86.4	13.1418
86.62	13.1142
86.84	6.3124
87.06	9.69358
87.28	5.2458
87.5	6.79215
87.72	5.20323
87.94	3.61598
88.16	9.832
88.38	9.87502
88.6	4.64414
88.82	9.18553
89.04	5.02715
89.26	14.7032
89.48	6.94052
89.7	15.8715
89.92	3.4908
