Measurement: Powder, Xray Data XY Processed
Mineral: Colemanite
Rruff sample: R050331
Ideal chemistry: CaB_3_O_4_(OH)_3_H_2_O
Locality: Thompson mine, Death Valley, Inyo County, California, USA
Source: California Institute of Technology
Description: Colorless fragment
Diffraction sample description: Powder
Measured chemistry: Ca_1.00_B_3.00_O_4_(OH)_3_Â·H_2_O ; B not measured but assumed by stoichiometry and charge balance.
Cell parameters: a: 8.7253(6) b: 11.2550(5) c: 6.0959(3) alpha: 90. beta: 110.145(6) gamma: 90. volume: 562.02(4) crystal system: monoclinic
x	intensity
5	0
5.22	8.38261
5.44	11.5018
5.66	9.1463
5.88	11.0716
6.1	16.3849
6.32	6.69825
6.54	11.0345
6.76	10.7619
6.98	8.32649
7.2	13.7831
7.42	10.8501
7.64	11.4818
7.86	14.1685
8.08	4.79363
8.3	2.13518
8.52	6.75596
8.74	2.20392
8.96	1.67885
9.18	6.89927
9.4	5.17926
9.62	7.76349
9.84	7.07523
10.06	8.42959
10.28	4.51882
10.5	5.59723
10.72	6.80026
10.94	4.14458
11.16	7.52574
11.38	2.28021
11.6	5.46926
11.82	2.40503
12.04	9.35186
12.26	1.62891
12.48	4.22021
12.7	5.42861
12.92	5.59815
13.14	6.40833
13.36	23.4802
13.58	0.257181
13.8	7.21832
14.02	6.35448
14.24	16.2426
14.46	3.06995
14.68	5.00514
14.9	5.90062
15.12	2.47389
15.34	13.7946
15.56	44.7383
15.78	415.582
16	20.6486
16.22	3.60411
16.44	0.467959
16.66	3.57584
16.88	11.9129
17.1	1.11991
17.32	10.2552
17.54	25.4999
17.76	0.373123
17.98	10.8879
18.2	3.87568
18.42	2.16604
18.64	0.075927
18.86	9.0029
19.08	10.1272
19.3	3.26719
19.52	8.36316
19.74	10.504
19.96	4.18768
20.18	3.15462
20.4	3.29512
20.62	2.09276
20.84	8.74561
21.06	11.8743
21.28	2.44906
21.5	0.071308
21.72	28.8157
21.94	11.4936
22.16	122.177
22.38	9.04763
22.6	7.93362
22.82	1.00595
23.04	38.341
23.26	25.5205
23.48	3.77141
23.7	8.42018
23.92	0.132281
24.14	0.794457
24.36	1.42725
24.58	8.59022
24.8	4.85496
25.02	3.20153
25.24	0.29893
25.46	3.35405
25.68	11.2194
25.9	8.8948
26.12	4.14279
26.34	0.584855
26.56	6.25697
26.78	2.94731
27	32.4196
27.22	35.9853
27.44	0.638408
27.66	4.53201
27.88	8.73883
28.1	11.1171
28.32	20.2685
28.54	377.55
28.76	21.9115
28.98	3.15363
29.2	14.3712
29.42	6.52074
29.64	1.76917
29.86	0.628179
30.08	3.39909
30.3	7.71716
30.52	1.88003
30.74	2.68663
30.96	59.2088
31.18	15.6788
31.4	5.40596
31.62	0.981147
31.84	73.8314
32.06	39.105
32.28	13.0229
32.5	64.7337
32.72	6.00827
32.94	1.44089
33.16	0.086581
33.38	4.67205
33.6	11.0314
33.82	19.1168
34.04	7.0096
34.26	3.89642
34.48	5.38579
34.7	10.6817
34.92	14.5568
35.14	68.5413
35.36	154.699
35.58	63.4773
35.8	5.27851
36.02	1.99231
36.24	1.30155
36.46	3.50477
36.68	1.70108
36.9	0.097887
37.12	7.14558
37.34	5.26353
37.56	37.5351
37.78	27.3586
38	19.4011
38.22	4.08037
38.44	10.7485
38.66	4.29296
38.88	24.9307
39.1	21.4333
39.32	9.64492
39.54	8.7553
39.76	10.4246
39.98	8.06096
40.2	4.18612
40.42	3.01351
40.64	6.74319
40.86	34.3729
41.08	6.88641
41.3	1.56258
41.52	9.13149
41.74	17.02
41.96	15.5103
42.18	66.9866
42.4	5.10527
42.62	2.32079
42.84	3.66779
43.06	7.99004
43.28	44.3434
43.5	3.95975
43.72	26.8456
43.94	12.5587
44.16	29.437
44.38	21.2499
44.6	0.177727
44.82	13.5624
45.04	59.6599
45.26	97.9756
45.48	0.050743
45.7	15.7117
45.92	27.4208
46.14	67.6826
46.36	6.72678
46.58	6.64841
46.8	2.08355
47.02	3.45895
47.24	10.7795
47.46	7.06658
47.68	7.72791
47.9	53.0261
48.12	22.2107
48.34	31.1956
48.56	19.2829
48.78	6.14766
49	5.27823
49.22	16.6787
49.44	6.84593
49.66	6.19414
49.88	18.3596
50.1	8.07752
50.32	13.1737
50.54	8.29934
50.76	3.49837
50.98	8.77366
51.2	27.2566
51.42	16.847
51.64	5.87867
51.86	11.036
52.08	6.01867
52.3	1.24355
52.52	5.38655
52.74	15.5809
52.96	17.922
53.18	14.5867
53.4	13.454
53.62	17.6586
53.84	21.0078
54.06	13.2165
54.28	2.3837
54.5	2.46518
54.72	5.51401
54.94	2.58347
55.16	9.76267
55.38	14.7974
55.6	13.2617
55.82	8.33771
56.04	10.303
56.26	4.4146
56.48	1.38295
56.7	8.78611
56.92	3.03437
57.14	2.06438
57.36	2.20076
57.58	0.065971
57.8	11.918
58.02	1.12318
58.24	6.65205
58.46	12.537
58.68	8.16094
58.9	10.1592
59.12	12.2215
59.34	2.09848
59.56	3.06218
59.78	4.99344
60	4.06009
60.22	4.10995
60.44	1.30872
60.66	11.2428
60.88	3.21379
61.1	5.14596
61.32	1.78463
61.54	2.52717
61.76	9.4519
61.98	6.39945
62.2	6.30628
62.42	6.66083
62.64	4.71195
62.86	8.60989
63.08	15.7155
63.3	4.74753
63.52	0.975408
63.74	0.383673
63.96	7.46813
64.18	14.5963
64.4	5.80386
64.62	7.91456
64.84	3.54614
65.06	10.63
65.28	2.68272
65.5	4.9794
65.72	3.91117
65.94	6.02201
66.16	4.85373
66.38	3.7885
66.6	0.168898
66.82	6.69787
67.04	2.57738
67.26	6.36694
67.48	6.45308
67.7	4.21692
67.92	3.86008
68.14	7.7687
68.36	4.62077
68.58	16.6028
68.8	6.37127
69.02	12.2415
69.24	4.23518
69.46	6.43639
69.68	4.38998
69.9	7.32553
70.12	7.4742
70.34	1.82849
70.56	7.44471
70.78	7.56985
71	12.6573
71.22	8.94434
71.44	2.70015
71.66	13.5527
71.88	2.70524
72.1	1.87205
72.32	7.08673
72.54	11.4038
72.76	2.33481
72.98	0.968281
73.2	4.18621
73.42	9.09609
73.64	6.16838
73.86	9.19028
74.08	0.946764
74.3	3.91525
74.52	2.82856
74.74	8.9075
74.96	8.66737
75.18	0.437333
75.4	7.2726
75.62	9.15691
75.84	1.60875
76.06	9.17319
76.28	2.08305
76.5	1.12142
76.72	0.658938
76.94	3.62811
77.16	4.42214
77.38	3.42256
77.6	4.51834
77.82	1.61275
78.04	3.37095
78.26	9.46283
78.48	5.6674
78.7	2.806
78.92	10.0175
79.14	6.83716
79.36	8.55261
79.58	0.574836
79.8	5.5322
80.02	0.412467
80.24	4.33254
80.46	11.3617
80.68	5.33355
80.9	1.26191
81.12	0.081395
81.34	5.1309
81.56	4.45739
81.78	2.59512
82	8.82661
82.22	2.0386
82.44	9.14975
82.66	5.2927
82.88	6.38177
83.1	6.44793
83.32	2.41179
83.54	12.3616
83.76	12.3015
83.98	6.26218
84.2	2.25928
84.42	0.158965
84.64	12.2932
84.86	9.44323
85.08	3.4564
85.3	3.43384
85.52	2.37608
85.74	1.34577
85.96	5.8668
86.18	0.733087
86.4	0.832486
86.62	3.91091
86.84	0.860025
87.06	11.2624
87.28	3.29651
87.5	6.36604
87.72	4.40931
87.94	4.46763
88.16	0.277319
88.38	6.38768
88.6	2.34526
88.82	4.19727
89.04	5.75408
89.26	5.66449
89.48	2.63383
89.7	2.68273
89.92	4.92456
