Measurement: Powder, Xray Data XY Processed
Mineral: Columbite-(Fe)
Rruff sample: R060001
Ideal chemistry: Fe^2+^Nb^5+^_2_O_6_
Locality: Gypsy mine, Minas Gerais, Brazil
Source: Eric Van Valkenburg
Description: Steel gray fragment with internal red hints
Diffraction sample description: Powder
Measured chemistry: (Fe^2+^_0.52_Mn^2+^_0.48_)_Σ=1_(Nb_1.61_Ta_0.39_)_Σ=2_O_6_
Cell parameters: a: 14.3139(7) b: 5.7425(3) c: 5.0891(3) alpha: 90 beta: 90 gamma: 90 volume: 418.31(2) crystal system: orthorhombic
x	intensity
5	0
5.22	7.029
5.44	3.1
5.66	1.398
5.88	4.298
6.1	1.26
6.32	4.212
6.54	6.488
6.76	9.581
6.98	1.594
7.2	7.622
7.42	0.267
7.64	3.915
7.86	13.089
8.08	0.358
8.3	9.729
8.52	8.924
8.74	9.202
8.96	6.038
9.18	3.95
9.4	6.751
9.62	10.856
9.84	4.884
10.06	1.824
10.28	7.069
10.5	12.539
10.72	1.666
10.94	9.089
11.16	5.814
11.38	8.628
11.6	1.543
11.82	4.526
12.04	11.422
12.26	10.315
12.48	17.906
12.7	2.79
12.92	4.844
13.14	6.884
13.36	2.871
13.58	1.053
13.8	3.193
14.02	7.228
14.24	1.283
14.46	8.182
14.68	3.478
14.9	7.568
15.12	8.675
15.34	5.714
15.56	9.838
15.78	8.861
16	5.614
16.22	5.384
16.44	11.615
16.66	11.554
16.88	7.431
17.1	7.972
17.32	4.933
17.54	2.744
17.76	1.299
17.98	3.608
18.2	3.553
18.42	5.69
18.64	6.089
18.86	6.674
19.08	7.634
19.3	4.006
19.52	1.96
19.74	10.93
19.96	7.774
20.18	7.044
20.4	2.997
20.62	13.999
20.84	3.918
21.06	8.593
21.28	6.024
21.5	4.221
21.72	10.977
21.94	12.962
22.16	9.378
22.38	10.151
22.6	10.937
22.82	0.211
23.04	7.539
23.26	7.22
23.48	9.836
23.7	3.118
23.92	4.642
24.14	18.502
24.36	119.536
24.58	12.918
24.8	8.007
25.02	3.92
25.24	9.019
25.46	1.316
25.68	5.928
25.9	0.82
26.12	2.419
26.34	8.577
26.56	12.093
26.78	0.532
27	5.728
27.22	9.634
27.44	8.694
27.66	0.204
27.88	8.217
28.1	6.938
28.32	11.859
28.54	7.49
28.76	3.294
28.98	0.742
29.2	8.372
29.42	5.252
29.64	11.541
29.86	13.104
30.08	443.526
30.3	23.299
30.52	4.381
30.74	8.437
30.96	4.328
31.18	37.555
31.4	7.226
31.62	3.977
31.84	13.349
32.06	3.585
32.28	2.197
32.5	1.433
32.72	3.937
32.94	4.077
33.16	13.969
33.38	9.233
33.6	8.151
33.82	8.764
34.04	5.23
34.26	6.991
34.48	0.533
34.7	6.097
34.92	10.887
35.14	9.658
35.36	40.556
35.58	4.453
35.8	0.352
36.02	35.995
36.24	7.046
36.46	2.456
36.68	5.775
36.9	1.985
37.12	1.61
37.34	7.761
37.56	7.075
37.78	48.112
38	16.105
38.22	4.703
38.44	5.485
38.66	9.274
38.88	11.904
39.1	5.02
39.32	13.864
39.54	1.462
39.76	0.054
39.98	6.548
40.2	9.435
40.42	0.68
40.64	5.674
40.86	17.56
41.08	1.89
41.3	5.966
41.52	3.279
41.74	0.596
41.96	7.834
42.18	4.919
42.4	10.904
42.62	8.992
42.84	3.718
43.06	10.637
43.28	32.558
43.5	25.536
43.72	0.59
43.94	5.508
44.16	7.23
44.38	4.201
44.6	2.343
44.82	4.409
45.04	10.6
45.26	11.964
45.48	6.34
45.7	7.353
45.92	7.089
46.14	5.761
46.36	4.63
46.58	5.443
46.8	11.271
47.02	10.047
47.24	12.879
47.46	0.092
47.68	14.644
47.9	28.369
48.12	7.635
48.34	3.639
48.56	2.686
48.78	8.305
49	6.229
49.22	6.53
49.44	7.457
49.66	34.032
49.88	8.052
50.1	7.816
50.32	10.35
50.54	5.743
50.76	6.603
50.98	1.654
51.2	11.488
51.42	36.794
51.64	17.349
51.86	11.947
52.08	6.505
52.3	6.004
52.52	12.79
52.74	58.042
52.96	20.219
53.18	62.234
53.4	5.417
53.62	6.336
53.84	4.975
54.06	8.031
54.28	7.491
54.5	4.075
54.72	4.841
54.94	6.595
55.16	4.665
55.38	6.088
55.6	5.122
55.82	15.287
56.04	1.219
56.26	15.13
56.48	8.594
56.7	5.818
56.92	22.491
57.14	8.526
57.36	3.178
57.58	13.088
57.8	3.146
58.02	10.178
58.24	3.505
58.46	5.365
58.68	4.203
58.9	11.041
59.12	7.629
59.34	2.554
59.56	12.039
59.78	6.017
60	21.954
60.22	29.119
60.44	15.547
60.66	12.421
60.88	11.476
61.1	7.49
61.32	3.281
61.54	8.046
61.76	1.452
61.98	4.117
62.2	8.567
62.42	27.037
62.64	8.212
62.86	2.162
63.08	5.949
63.3	31.631
63.52	38.271
63.74	24.478
63.96	49.251
64.18	16.571
64.4	1.748
64.62	6.698
64.84	2.479
65.06	2.974
65.28	2.217
65.5	4.669
65.72	13.929
65.94	0.862
66.16	7.539
66.38	6.806
66.6	4.436
66.82	4.144
67.04	6.005
67.26	5.931
67.48	4.532
67.7	17.158
67.92	11.37
68.14	15.384
68.36	11.104
68.58	10.025
68.8	8.969
69.02	6.918
69.24	8.853
69.46	6.194
69.68	7.142
69.9	8.561
70.12	5.378
70.34	6.489
70.56	0.494
70.78	7.474
71	5.466
71.22	3.699
71.44	13.902
71.66	5.822
71.88	7.664
72.1	1.181
72.32	15.058
72.54	6.876
72.76	8.629
72.98	11.89
73.2	2.948
73.42	1.861
73.64	16.564
73.86	0.395
74.08	0.395
74.3	4.589
74.52	4.163
74.74	4.251
74.96	6.3
75.18	3.07
75.4	0.637
75.62	7.409
75.84	2.596
76.06	4.463
76.28	9.403
76.5	12.369
76.72	12.422
76.94	11.234
77.16	1.925
77.38	0.014
77.6	1.177
77.82	15.129
78.04	20.001
78.26	3.761
78.48	11.032
78.7	17.905
78.92	12.77
79.14	12.246
79.36	5.172
79.58	9.159
79.8	14.02
80.02	17.875
80.24	18.896
80.46	25.275
80.68	22.743
80.9	8.789
81.12	11.793
81.34	2.027
81.56	12.196
81.78	7.463
82	4.043
82.22	10.504
82.44	3.843
82.66	6.194
82.88	9.084
83.1	0.264
83.32	12.485
83.54	10.533
83.76	1.308
83.98	0.892
84.2	9.649
84.42	7.039
84.64	6.6
84.86	17.377
85.08	8.979
85.3	12.608
85.52	8.401
85.74	8.177
85.96	11.866
86.18	11.81
86.4	5.125
86.62	5.436
86.84	9.608
87.06	14.447
87.28	7.389
87.5	6.263
87.72	0.661
87.94	12.307
88.16	8.807
88.38	18.91
88.6	10.087
88.82	12.513
89.04	16.117
89.26	8.142
89.48	9.434
89.7	11.488
89.92	12.276
