Measurement: Powder, Xray Data XY Processed
Mineral: Columbite-(Mn)
Rruff sample: R040083
Ideal chemistry: Mn^2+^Nb^5+^_2_O_6_
Locality: Mina Miramica, Santa Cruz, Bolivia
Source: University of Arizona Mineral Museum
Description: Fragment consisting of multiple phases as shown by both X-ray diffraction and microprobe.
Diffraction sample description: Powder
Measured chemistry: Light bands: (Mn^2+^_0.78_Fe^2+^_0.21_Ti_0.01_)(Nb_0.74_Ta_0.25_Ti_0.01_)_2_O_6_; Dark bands:(Mn^2+^_0.73_Fe^2+^_0.26_Ti_0.01_)(Nb_0.86_Ta_0.13_Ti_0.01_)_2_O_6_
Cell parameters: a: 14.317(2) b: 5.7444(4) c: 5.1089(4) alpha: 90. beta: 90. gamma: 90. volume: 420.20(4) crystal system: orthorhombic
x	intensity
5	0
5.22	16.293
5.44	18.47
5.66	14.551
5.88	7.991
6.1	7.838
6.32	21.872
6.54	10.905
6.76	7.875
6.98	13.951
7.2	12.771
7.42	3.722
7.64	5.318
7.86	17.684
8.08	17.554
8.3	6.552
8.52	5.059
8.74	30.429
8.96	29.068
9.18	16.334
9.4	18.013
9.62	11.503
9.84	4.657
10.06	9.764
10.28	17.818
10.5	8.137
10.72	17.701
10.94	13.064
11.16	13.429
11.38	14.598
11.6	4.209
11.82	19.441
12.04	7.216
12.26	11.682
12.48	16.488
12.7	9.059
12.92	4.524
13.14	11.649
13.36	2.008
13.58	12.307
13.8	13.081
14.02	5.246
14.24	8.984
14.46	7.298
14.68	0.326
14.9	3.047
15.12	20.704
15.34	1.334
15.56	12.17
15.78	1.592
16	13.447
16.22	11.728
16.44	10.467
16.66	37.228
16.88	7.875
17.1	5.869
17.32	2.998
17.54	10.8
17.76	31.157
17.98	4.179
18.2	13.943
18.42	4.782
18.64	10.388
18.86	23.515
19.08	17.388
19.3	0.462
19.52	0.952
19.74	8.77
19.96	0.602
20.18	22.352
20.4	8.508
20.62	14.075
20.84	25.059
21.06	15.731
21.28	11.615
21.5	8.874
21.72	12.783
21.94	21.839
22.16	11.875
22.38	12.174
22.6	12.254
22.82	13.169
23.04	13.299
23.26	16.025
23.48	0.77
23.7	19.752
23.92	4.674
24.14	120.115
24.36	206.563
24.58	11.267
24.8	15.624
25.02	5.789
25.24	2.999
25.46	19.254
25.68	3.562
25.9	11.924
26.12	15.555
26.34	0.946
26.56	11.138
26.78	93.751
27	26.143
27.22	16.062
27.44	7.159
27.66	6.204
27.88	13.138
28.1	6.562
28.32	12.781
28.54	4.583
28.76	7.399
28.98	8.97
29.2	26.182
29.42	24.422
29.64	31.983
29.86	162.652
30.08	802.909
30.3	43.435
30.52	12.9
30.74	13.57
30.96	19.859
31.18	74.234
31.4	13.751
31.62	13.75
31.84	14.233
32.06	18.478
32.28	2.581
32.5	8.212
32.72	13.586
32.94	10.637
33.16	2.387
33.38	15.938
33.6	0.213
33.82	17.413
34.04	7.755
34.26	18.235
34.48	17.813
34.7	13.96
34.92	8.729
35.14	99.989
35.36	13.653
35.58	7.466
35.8	56.373
36.02	60.606
36.24	16.089
36.46	5.484
36.68	2.024
36.9	5.878
37.12	2.659
37.34	17.538
37.56	39.729
37.78	53.634
38	26.48
38.22	6.272
38.44	2.412
38.66	13.218
38.88	2.322
39.1	5.371
39.32	10.156
39.54	21.915
39.76	11.65
39.98	24.405
40.2	14.888
40.42	10.442
40.64	49.188
40.86	35.272
41.08	7.546
41.3	4.768
41.52	16.92
41.74	0.83
41.96	5.714
42.18	20.594
42.4	11.505
42.62	12.266
42.84	9.312
43.06	49.693
43.28	25.815
43.5	20.675
43.72	7.887
43.94	2.737
44.16	7.487
44.38	14.858
44.6	25.271
44.82	13.798
45.04	3.195
45.26	1.182
45.48	38.682
45.7	17.254
45.92	17.241
46.14	7.332
46.36	8.935
46.58	7.436
46.8	0.779
47.02	8.168
47.24	8.836
47.46	34.059
47.68	67.115
47.9	19.227
48.12	10.596
48.34	6.472
48.56	10.121
48.78	13.756
49	13.694
49.22	15.275
49.44	13.648
49.66	66.108
49.88	14.958
50.1	3.338
50.32	11.488
50.54	2.252
50.76	12.969
50.98	0.131
51.2	15.145
51.42	86.946
51.64	34.232
51.86	21.649
52.08	17.199
52.3	25.028
52.52	77.244
52.74	61.762
52.96	331.16
53.18	139.306
53.4	13.726
53.62	12.475
53.84	3.193
54.06	2.616
54.28	14.689
54.5	12.963
54.72	19.06
54.94	12.859
55.16	16.762
55.38	18.747
55.6	10.743
55.82	15.698
56.04	11.782
56.26	10.174
56.48	6.721
56.7	12.658
56.92	13.349
57.14	4.032
57.36	8.885
57.58	10.49
57.8	13.057
58.02	15.79
58.24	4.981
58.46	13.612
58.68	3.941
58.9	9.55
59.12	0.519
59.34	12.466
59.56	31.358
59.78	62.315
60	96.077
60.22	26.793
60.44	7.833
60.66	14.375
60.88	15.62
61.1	1.621
61.32	15.855
61.54	17.419
61.76	17.421
61.98	3.394
62.2	33.397
62.42	29.317
62.64	8.066
62.86	4.205
63.08	14.929
63.3	93.435
63.52	80.732
63.74	119.346
63.96	50.098
64.18	15.374
64.4	17.816
64.62	15.663
64.84	13.556
65.06	19.06
65.28	17.055
65.5	15.727
65.72	9.23
65.94	13.389
66.16	18.011
66.38	19.637
66.6	8.187
66.82	11.847
67.04	0.504
67.26	15.594
67.48	0.079
67.7	40.009
67.92	36.408
68.14	10.014
68.36	5.139
68.58	0.546
68.8	12.948
69.02	14.452
69.24	3.03
69.46	3.972
69.68	4.555
69.9	21.599
70.12	1.251
70.34	20.991
70.56	6.634
70.78	5.767
71	6.263
71.22	5.336
71.44	17.736
71.66	27.963
71.88	9.389
72.1	13.341
72.32	22.556
72.54	3.486
72.76	12.821
72.98	11.594
73.2	8.286
73.42	2.038
73.64	4.343
73.86	3.396
74.08	15.471
74.3	22.967
74.52	9.513
74.74	10.243
74.96	6.016
75.18	8.827
75.4	10.722
75.62	7.837
75.84	12.089
76.06	10.329
76.28	21.682
76.5	22.599
76.72	8.674
76.94	9.691
77.16	2.794
77.38	2.694
77.6	13.867
77.82	21.245
78.04	17.18
78.26	18.781
78.48	13.31
78.7	3.394
78.92	15.296
79.14	19.978
79.36	2.72
79.58	15.547
79.8	7.112
80.02	17.868
80.24	34.997
80.46	18.813
80.68	22.285
80.9	18.26
81.12	6.319
81.34	8.907
81.56	6.369
81.78	9.777
82	10.155
82.22	7.369
82.44	0.746
82.66	7.996
82.88	25.944
83.1	10.02
83.32	18.01
83.54	16.881
83.76	0.418
83.98	5.324
84.2	8.006
84.42	10.382
84.64	0.007
84.86	7.659
85.08	12.282
85.3	20.54
85.52	6.063
85.74	0.366
85.96	1.057
86.18	23.319
86.4	19.144
86.62	13.377
86.84	5.535
87.06	18.389
87.28	21.546
87.5	6.206
87.72	11.984
87.94	10.706
88.16	12.44
88.38	19.678
88.6	39.337
88.82	10.509
89.04	14.916
89.26	11.281
89.48	13.068
89.7	12.171
89.92	13.509
