Measurement: Powder, Xray Data XY Processed
Mineral: Cordierite
Rruff sample: R040081
Ideal chemistry: Mg_2_Al_3_(AlSi_5_)O_18_
Locality: Laramie Range, Wyoming, USA
Source: University of Arizona Mineral Museum
Description: Blue to purple coarsely crystalline
Diffraction sample description: Powder
Measured chemistry: (Mg_1.80_Fe^2+^_0.20_)_Σ=2_Al_4.00_(Si_4.96_Al_0.04_)_Σ=5_O_18_·0.86H_2_O·Na_0.04_ ; H_2_O estimated by difference and verified by Raman spectroscopy
Cell parameters: a: 17.0777(6) b: 9.730(1) c: 9.3470(5) alpha: 90. beta: 90. gamma: 90. volume: 1553.2(2) crystal system: orthorhombic
x	intensity
5	0
5.22	9.753
5.44	9.015
5.66	4.341
5.88	8.614
6.1	24.358
6.32	28.915
6.54	15.969
6.76	40.222
6.98	3.795
7.2	11.521
7.42	1.1
7.64	5.593
7.86	1.737
8.08	10.111
8.3	14.821
8.52	14.402
8.74	5.999
8.96	4.318
9.18	19.974
9.4	48.649
9.62	15.219
9.84	15.896
10.06	18.72
10.28	153.434
10.5	2679.28
10.72	14.028
10.94	17.114
11.16	6.761
11.38	14.124
11.6	4.931
11.82	10.03
12.04	12.307
12.26	0.75
12.48	10.446
12.7	10.834
12.92	8.911
13.14	25.74
13.36	9.081
13.58	9.783
13.8	5.401
14.02	17.442
14.24	9.503
14.46	2.326
14.68	19.685
14.9	7.652
15.12	11.668
15.34	18.221
15.56	0.722
15.78	19.706
16	18
16.22	17.243
16.44	1.541
16.66	6.916
16.88	13.825
17.1	9.519
17.32	11.356
17.54	19.369
17.76	3.288
17.98	13.605
18.2	31.368
18.42	16.35
18.64	6.864
18.86	14.936
19.08	106.425
19.3	7.35
19.52	8.682
19.74	10.541
19.96	2.766
20.18	4.147
20.4	7.362
20.62	0.276
20.84	61.924
21.06	18.889
21.28	16.391
21.5	5.708
21.72	318.981
21.94	21.387
22.16	19.019
22.38	10.591
22.6	12.431
22.82	14.908
23.04	7.659
23.26	1.462
23.48	21.149
23.7	6.881
23.92	22.284
24.14	6.199
24.36	3.658
24.58	10.441
24.8	0.036
25.02	7.861
25.24	8.452
25.46	5.643
25.68	21.115
25.9	12.138
26.12	4.609
26.34	524.846
26.56	178.195
26.78	3.059
27	17.333
27.22	14.615
27.44	4.57
27.66	7.665
27.88	14.753
28.1	18.727
28.32	193.844
28.54	381.514
28.76	16.876
28.98	12.454
29.2	3.576
29.42	502.403
29.64	591.306
29.86	34.256
30.08	5.66
30.3	1.813
30.52	16.014
30.74	8.074
30.96	7.673
31.18	14.057
31.4	10.463
31.62	7.088
31.84	15.122
32.06	7.414
32.28	12.356
32.5	8.579
32.72	18.318
32.94	10.061
33.16	7.878
33.38	4.625
33.6	6.502
33.82	237.53
34.04	57.023
34.26	12.097
34.48	5.911
34.7	6.559
34.92	1.225
35.14	2.069
35.36	6.361
35.58	10.608
35.8	10.658
36.02	5.075
36.24	28.033
36.46	8.731
36.68	56.356
36.9	12.348
37.12	16.843
37.34	2.41
37.56	3.127
37.78	10.01
38	3.269
38.22	8.944
38.44	8.222
38.66	137.976
38.88	4.39
39.1	7.685
39.32	50.433
39.54	38.412
39.76	20.72
39.98	7.397
40.2	10.195
40.42	5.018
40.64	11.767
40.86	6.273
41.08	7.606
41.3	11.282
41.52	60.014
41.74	18.151
41.96	14.716
42.18	2.074
42.4	15.508
42.62	5.103
42.84	110.265
43.06	100.096
43.28	77.01
43.5	16.173
43.72	4.044
43.94	9.263
44.16	17.436
44.38	16.714
44.6	2.791
44.82	4.637
45.04	1.125
45.26	11.145
45.48	9.77
45.7	4.396
45.92	7.059
46.14	15.475
46.36	7.501
46.58	70.019
46.8	71.349
47.02	24.478
47.24	18.533
47.46	3.652
47.68	7.652
47.9	8.403
48.12	0.47
48.34	52.389
48.56	49.892
48.78	37.923
49	5.554
49.22	6.629
49.44	30.982
49.66	30.503
49.88	15.174
50.1	4.989
50.32	35.602
50.54	77.915
50.76	125.968
50.98	7.051
51.2	5.798
51.42	8.401
51.64	0.779
51.86	8.88
52.08	3.284
52.3	3.907
52.52	3.252
52.74	6.121
52.96	3.49
53.18	8.463
53.4	10.793
53.62	10.213
53.84	22.494
54.06	20.554
54.28	109.578
54.5	55.184
54.72	4.566
54.94	1.868
55.16	5.237
55.38	14.55
55.6	20.148
55.82	6.286
56.04	10.286
56.26	11.335
56.48	0.32
56.7	0.642
56.92	24.955
57.14	20.591
57.36	14.147
57.58	23.993
57.8	24.682
58.02	43.974
58.24	18.499
58.46	6.737
58.68	16.885
58.9	19.269
59.12	9.91
59.34	32.343
59.56	17.912
59.78	20.537
60	30.687
60.22	12.599
60.44	38.464
60.66	3.694
60.88	11.301
61.1	20.432
61.32	22.371
61.54	12.083
61.76	2.953
61.98	43.694
62.2	35.96
62.42	9.92
62.64	33.79
62.86	14.953
63.08	2.047
63.3	9.175
63.52	21.168
63.74	10.564
63.96	12.963
64.18	12.443
64.4	40.649
64.62	51.815
64.84	20.363
65.06	0.089
65.28	7.562
65.5	13.553
65.72	13.634
65.94	12.695
66.16	12.244
66.38	21.716
66.6	12.315
66.82	15.12
67.04	9.545
67.26	10.392
67.48	4.076
67.7	3.44
67.92	6.926
68.14	10.633
68.36	11.173
68.58	14.614
68.8	5.501
69.02	19.45
69.24	8.324
69.46	7.059
69.68	458.12
69.9	429.446
70.12	8.126
70.34	9.09
70.56	0.008
70.78	19.984
71	25.938
71.22	11.467
71.44	14.741
71.66	13.56
71.88	13.688
72.1	9.311
72.32	9.224
72.54	3.156
72.76	4.192
72.98	22.683
73.2	16.297
73.42	2.041
73.64	0.642
73.86	7.669
74.08	6.98
74.3	11.612
74.52	5.752
74.74	9.558
74.96	14.111
75.18	5.934
75.4	5.851
75.62	8.034
75.84	25.449
76.06	20.195
76.28	21.957
76.5	25.924
76.72	20.777
76.94	18.068
77.16	7.857
77.38	34.138
77.6	16.021
77.82	11.133
78.04	0.847
78.26	0.335
78.48	10.282
78.7	12.476
78.92	1.358
79.14	4.225
79.36	11.477
79.58	8.685
79.8	26.206
80.02	19.027
80.24	11.078
80.46	10.785
80.68	16.229
80.9	63.024
81.12	31.379
81.34	0.589
81.56	2.47
81.78	0.912
82	1.4
82.22	3.761
82.44	15.224
82.66	29.511
82.88	6.963
83.1	0.294
83.32	1.447
83.54	4.334
83.76	1.537
83.98	1.76
84.2	10.01
84.42	29.805
84.64	8.452
84.86	1.696
85.08	9.567
85.3	17.812
85.52	20.545
85.74	7.868
85.96	11.956
86.18	14.256
86.4	11.487
86.62	7.717
86.84	0.912
87.06	9.347
87.28	17.322
87.5	10.537
87.72	10.079
87.94	8.446
88.16	4.487
88.38	12.663
88.6	23.526
88.82	4.624
89.04	7.778
89.26	0.178
89.48	6.481
89.7	2.174
89.92	10.554
