Measurement: Powder, Xray Data XY Processed
Mineral: Cornetite
Rruff sample: R050151
Ideal chemistry: Cu^2+^_3_P^5+^O_4_(OH)_3_
Locality: Manto Russo, El Salado, Chile
Source: Jim McGlasson
Description: Druse of blue short prismatic crystals
Diffraction sample description: Single crystal, powder profile is calculated
Measured chemistry: Cu_3.00_P_1.00_O_4_(OH)_3_
Cell parameters: a: 10.851(3) b: 14.052(4) c: 7.0893(3) alpha: 90 beta: 90 gamma: 90 volume: 1081.0(4) crystal system: orthorhombic
x	intensity
5	0
5.22	0
5.44	0
5.66	0
5.88	0
6.1	0
6.32	0
6.54	0
6.76	0
6.98	0
7.2	0
7.42	0
7.64	0
7.86	0
8.08	0
8.3	0
8.52	0
8.74	0
8.96	0
9.18	0
9.4	0
9.62	0
9.84	0
10.06	0
10.28	0
10.5	0
10.72	0
10.94	0
11.16	0
11.38	0
11.6	0
11.82	0
12.04	0
12.26	0
12.48	0.001
12.7	0.018
12.92	0
13.14	0
13.36	0
13.58	0
13.8	0
14.02	0
14.24	0
14.46	0
14.68	0
14.9	0
15.12	0
15.34	0
15.56	0
15.78	0
16	0
16.22	30.905
16.44	0.292
16.66	0
16.88	0
17.1	0
17.32	0
17.54	42.635
17.76	0.634
17.98	0
18.2	0
18.42	0
18.64	0
18.86	0
19.08	0
19.3	0
19.52	9.078
19.74	0.001
19.96	0
20.18	0
20.4	0
20.62	19.232
20.84	0.005
21.06	0
21.28	0
21.5	0.114
21.72	0
21.94	0
22.16	0
22.38	0
22.6	0
22.82	0
23.04	0
23.26	0
23.48	0
23.7	0
23.92	0
24.14	16.828
24.36	0.232
24.58	0
24.8	0
25.02	0.541
25.24	0.305
25.46	0.156
25.68	0
25.9	0
26.12	0
26.34	0.002
26.56	0.012
26.78	0
27	0
27.22	3.682
27.44	0
27.66	0
27.88	0
28.1	58.319
28.32	18.849
28.54	0.31
28.76	0
28.98	0
29.2	0
29.42	62.101
29.64	4.376
29.86	0
30.08	11.614
30.3	66.206
30.52	5.323
30.74	12.416
30.96	0.011
31.18	0
31.4	0
31.62	0
31.84	0
32.06	0
32.28	0
32.5	0
32.72	45.134
32.94	0.572
33.16	0.009
33.38	0
33.6	2.347
33.82	0.451
34.04	0
34.26	0
34.48	0
34.7	0
34.92	0
35.14	0
35.36	8.287
35.58	3.717
35.8	3.631
36.02	29.466
36.24	0.001
36.46	0
36.68	0
36.9	17.398
37.12	0.278
37.34	0
37.56	0
37.78	17.037
38	0.612
38.22	0.579
38.44	14.592
38.66	0
38.88	0
39.1	0
39.32	0
39.54	1.531
39.76	1.032
39.98	0
40.2	5.346
40.42	1.135
40.64	5.435
40.86	0
41.08	0.042
41.3	0.004
41.52	0.432
41.74	0.089
41.96	10.263
42.18	12.419
42.4	1.646
42.62	0.121
42.84	0.009
43.06	0
43.28	0
43.5	0
43.72	11.606
43.94	13.673
44.16	9.303
44.38	3.371
44.6	0.001
44.82	0
45.04	0
45.26	0
45.48	0.082
45.7	0.135
45.92	0
46.14	2.99
46.36	6.348
46.58	1.577
46.8	0
47.02	2.162
47.24	2.883
47.46	0.006
47.68	0.026
47.9	2.548
48.12	1.8
48.34	3.948
48.56	0.035
48.78	0
49	0
49.22	0.749
49.44	0.028
49.66	4.867
49.88	0.019
50.1	4.291
50.32	0.043
50.54	0.261
50.76	0.101
50.98	5.973
51.2	4.157
51.42	0.074
51.64	5.642
51.86	0.651
52.08	0.74
52.3	4.565
52.52	0.616
52.74	5.91
52.96	1.13
53.18	6.03
53.4	2.839
53.62	0.017
53.84	4.771
54.06	3.457
54.28	0.352
54.5	0.649
54.72	0.012
54.94	1.36
55.16	0.852
55.38	0.104
55.6	0
55.82	0.033
56.04	1.55
56.26	2.485
56.48	0.041
56.7	0.073
56.92	0.25
57.14	1.596
57.36	0.261
57.58	0.479
57.8	0.007
58.02	6.434
58.24	4.536
58.46	1.382
58.68	13.224
58.9	1.132
59.12	0.044
59.34	2.047
59.56	0.048
59.78	27.107
60	4.753
60.22	0.004
60.44	0
60.66	0.218
60.88	2.263
61.1	3.921
61.32	7.044
61.54	6.693
61.76	2.831
61.98	1.087
62.2	0
62.42	0.419
62.64	1.568
62.86	1.016
63.08	1.072
63.3	7.326
63.52	2.703
63.74	0.057
63.96	0.192
64.18	6.048
64.4	7.232
64.62	3.438
64.84	0.057
65.06	0.002
65.28	0.987
65.5	0.14
65.72	2.344
65.94	3.285
66.16	2.015
66.38	0.22
66.6	0.226
66.82	5.37
67.04	2.091
67.26	1.661
67.48	0.862
67.7	0.33
67.92	0.371
68.14	0.206
68.36	0.002
68.58	3.111
68.8	3.011
69.02	1.034
69.24	0.688
69.46	0.107
69.68	0.042
69.9	1.06
70.12	1.085
70.34	0.068
70.56	0.255
70.78	1.644
71	2.813
71.22	0.812
71.44	0.941
71.66	2.026
71.88	0.505
72.1	0.078
72.32	0.832
72.54	0.438
72.76	0.053
72.98	0.047
73.2	0.188
73.42	0.116
73.64	0.014
73.86	0.186
74.08	0.509
74.3	1.26
74.52	0.774
74.74	0.108
74.96	2.468
75.18	1.335
75.4	1.736
75.62	1.436
75.84	0.458
76.06	0.537
76.28	1.451
76.5	1.116
76.72	0.334
76.94	0.232
77.16	0.723
77.38	0.416
77.6	3.48
77.82	1.329
78.04	0.811
78.26	1.049
78.48	0.468
78.7	1.659
78.92	0.791
79.14	0.392
79.36	0.228
79.58	0.066
79.8	0.076
80.02	0.015
80.24	0.263
80.46	1.31
80.68	1.052
80.9	1.087
81.12	0.941
81.34	0.989
81.56	1.346
81.78	0.9
82	0.416
82.22	0.581
82.44	0.366
82.66	1.068
82.88	1.168
83.1	0.404
83.32	1.153
83.54	0.875
83.76	0.303
83.98	0.958
84.2	0.739
84.42	0.425
84.64	1.269
84.86	2.032
85.08	0.683
85.3	0.177
85.52	0.152
85.74	0.546
85.96	0.692
86.18	0.142
86.4	0.04
86.62	0.277
86.84	0.585
87.06	0.111
87.28	0.078
87.5	0.367
87.72	1.104
87.94	0.628
88.16	0.155
88.38	0.108
88.6	1.093
88.82	1.564
89.04	0.533
89.26	0.658
89.48	0.139
89.7	1.591
89.92	0.232
