Measurement: Powder, Xray Data XY Processed
Mineral: Corundum
Rruff sample: R040096
Ideal chemistry: Al_2_O_3_
Locality: Sri Lanka
Source: University of Arizona Mineral Museum
Description: Pale purple hexagonal prism
Diffraction sample description: Powder
Measured chemistry: Al_2.00_O_3_
Cell parameters: a: 4.76016(8) b: 4.76016(8) c: 12.9946(3) alpha: 90. beta: 90. gamma: 120. volume: 254.999(9) crystal system: hexagonal
x	intensity
5	0
5.22	14.516
5.44	8.843
5.66	13.867
5.88	10.463
6.1	13.796
6.32	5.435
6.54	5.697
6.76	2.146
6.98	5.559
7.2	8.943
7.42	10.462
7.64	5.986
7.86	9.545
8.08	6.517
8.3	13.986
8.52	1.762
8.74	1.738
8.96	14.452
9.18	1.318
9.4	1.147
9.62	10.548
9.84	4.628
10.06	4.486
10.28	0.785
10.5	2.079
10.72	4.112
10.94	5.242
11.16	14.345
11.38	3.381
11.6	8.425
11.82	11.081
12.04	10.243
12.26	6.237
12.48	6.354
12.7	6.551
12.92	7.448
13.14	2.609
13.36	7.33
13.58	3.357
13.8	5.619
14.02	7.682
14.24	2.84
14.46	7.849
14.68	5.096
14.9	8.315
15.12	3.577
15.34	3.857
15.56	2.174
15.78	6.656
16	2.76
16.22	8.066
16.44	1.695
16.66	1.489
16.88	3.655
17.1	1.846
17.32	2.451
17.54	2.575
17.76	6.438
17.98	6.401
18.2	3.256
18.42	6.175
18.64	6.145
18.86	9.053
19.08	7.981
19.3	5.799
19.52	4.85
19.74	0.069
19.96	2.956
20.18	5.175
20.4	4.581
20.62	8.629
20.84	6.742
21.06	2.785
21.28	7.237
21.5	1.337
21.72	3.35
21.94	7.364
22.16	7.361
22.38	4.302
22.6	3.386
22.82	7.266
23.04	9.363
23.26	7.238
23.48	6.457
23.7	2.952
23.92	2.726
24.14	1.48
24.36	2.196
24.58	4.893
24.8	1.571
25.02	9.042
25.24	4.605
25.46	13.376
25.68	490.064
25.9	21.909
26.12	7.107
26.34	4.615
26.56	9.905
26.78	4.173
27	6.461
27.22	4.784
27.44	8.211
27.66	3.38
27.88	6.457
28.1	2.538
28.32	8.808
28.54	5.742
28.76	5.517
28.98	5.439
29.2	7.512
29.42	5.504
29.64	3.357
29.86	7.337
30.08	6.712
30.3	1.874
30.52	4.918
30.74	7.626
30.96	6.955
31.18	4.006
31.4	8.144
31.62	3.148
31.84	3.273
32.06	0.384
32.28	8.516
32.5	2.289
32.72	2.009
32.94	0.771
33.16	0.437
33.38	2.236
33.6	1.104
33.82	5.44
34.04	6.991
34.26	5.641
34.48	7.109
34.7	2.697
34.92	11.654
35.14	202.622
35.36	126.908
35.58	24.986
35.8	7.028
36.02	2.279
36.24	6.386
36.46	7.436
36.68	3.444
36.9	1.544
37.12	0.473
37.34	5.137
37.56	4.187
37.78	130.917
38	51.827
38.22	13.947
38.44	5.138
38.66	1.603
38.88	0.656
39.1	11.084
39.32	0.364
39.54	1.674
39.76	8.964
39.98	5.35
40.2	10.631
40.42	1.59
40.64	6.188
40.86	0.027
41.08	11.788
41.3	2.719
41.52	2.259
41.74	13.781
41.96	0.24
42.18	4.705
42.4	0.253
42.62	0.355
42.84	2.962
43.06	8.81
43.28	77.845
43.5	408.075
43.72	33.301
43.94	6.693
44.16	10.303
44.38	3.172
44.6	12.678
44.82	0.905
45.04	0.394
45.26	9.934
45.48	10.195
45.7	7.298
45.92	4.204
46.14	4.008
46.36	15.956
46.58	5.901
46.8	0.727
47.02	7.648
47.24	14.711
47.46	6.628
47.68	0.741
47.9	5.84
48.12	1.954
48.34	6.255
48.56	3.467
48.78	5.547
49	3.378
49.22	3.558
49.44	4.598
49.66	5.538
49.88	2.592
50.1	3.79
50.32	11.661
50.54	7.509
50.76	8.203
50.98	3.017
51.2	0.629
51.42	7.352
51.64	7.834
51.86	11.619
52.08	7.524
52.3	5.186
52.52	86.03
52.74	286.081
52.96	12.433
53.18	4.846
53.4	2.181
53.62	8.616
53.84	0.986
54.06	3.345
54.28	1.719
54.5	1.896
54.72	2.136
54.94	4.209
55.16	0.096
55.38	5.002
55.6	4.652
55.82	9.127
56.04	0.579
56.26	8.064
56.48	7.583
56.7	2.035
56.92	3.644
57.14	11.239
57.36	39
57.58	649.738
57.8	119.802
58.02	14.222
58.24	2.58
58.46	2.999
58.68	4.302
58.9	2.714
59.12	7.092
59.34	5.452
59.56	2.202
59.78	15.904
60	13.786
60.22	4.8
60.44	1.529
60.66	1.418
60.88	5.512
61.1	8.928
61.32	49.349
61.54	34.407
61.76	5.5
61.98	1.477
62.2	2.695
62.42	0.814
62.64	2.882
62.86	4.107
63.08	0.27
63.3	2.008
63.52	1.94
63.74	5.509
63.96	3.802
64.18	4.809
64.4	1.783
64.62	3.816
64.84	2.696
65.06	4.519
65.28	1.176
65.5	4.733
65.72	3.356
65.94	4.078
66.16	15.611
66.38	41.226
66.6	200.892
66.82	52.403
67.04	11.897
67.26	7.582
67.48	5.254
67.7	8.156
67.92	11.275
68.14	73.443
68.36	113.567
68.58	30.734
68.8	10.311
69.02	3.94
69.24	6.482
69.46	3.935
69.68	7.464
69.9	2.066
70.12	4.417
70.34	2.703
70.56	7.894
70.78	5.138
71	1.445
71.22	7.411
71.44	8.208
71.66	10.279
71.88	6.5
72.1	1.482
72.32	2.55
72.54	4.532
72.76	10.525
72.98	4.489
73.2	1.39
73.42	7.357
73.64	0.358
73.86	3.396
74.08	2.672
74.3	8.593
74.52	15.751
74.74	5.627
74.96	6.617
75.18	3.554
75.4	1.602
75.62	1.425
75.84	10.142
76.06	0.899
76.28	5.595
76.5	4.118
76.72	5.775
76.94	88.804
77.16	48.851
77.38	27.949
77.6	7.016
77.82	4.12
78.04	5.285
78.26	0.451
78.48	5.948
78.7	1.096
78.92	3.347
79.14	5.524
79.36	4.465
79.58	3.414
79.8	7.406
80.02	0.386
80.24	3.275
80.46	7.628
80.68	14.739
80.9	15.478
81.12	3.565
81.34	2.633
81.56	4.576
81.78	0.6
82	0.443
82.22	4.578
82.44	6.532
82.66	7.413
82.88	8.296
83.1	4.125
83.32	6.066
83.54	3.973
83.76	3.921
83.98	2.11
84.2	6.227
84.42	22.347
84.64	13.288
84.86	3.366
85.08	4.3
85.3	3.092
85.52	5.053
85.74	1.004
85.96	9.967
86.18	7.019
86.4	27.778
86.62	17.715
86.84	12.674
87.06	3.877
87.28	0.874
87.5	5.341
87.72	7.425
87.94	4.52
88.16	3.6
88.38	0.563
88.6	6.427
88.82	6.522
89.04	41.5
89.26	21.505
89.48	3.856
89.7	7.873
89.92	2.599
