Measurement: Powder, Xray Data XY Processed
Mineral: Covellite
Rruff sample: R060143
Ideal chemistry: Cu^1+^S
Locality: Butte, Montana, USA
Source: Marcus Origlieri
Description: Irridescent blue to purple hexagonal plates
Diffraction sample description: Powder
Measured chemistry: Cu_1.00_S_1.00_
Cell parameters: a: 3.7933(2) b: 3.7933(2) c: 16.347(1) alpha: 90 beta: 90 gamma: 120 volume: 203.70(2) crystal system: hexagonal
x	intensity
5	0
5.22	7.683
5.44	1.487
5.66	7.757
5.88	14.774
6.1	12.085
6.32	10.552
6.54	16.314
6.76	21.372
6.98	12.269
7.2	10.91
7.42	12.343
7.64	12.191
7.86	0.943
8.08	16.669
8.3	18.175
8.52	13.68
8.74	16.306
8.96	14.156
9.18	9.154
9.4	2.343
9.62	15.533
9.84	10.207
10.06	1.208
10.28	16.275
10.5	14.086
10.72	2.325
10.94	29.591
11.16	8.433
11.38	14.464
11.6	13.799
11.82	17.152
12.04	3.334
12.26	10.064
12.48	21.128
12.7	13.222
12.92	7.344
13.14	11.027
13.36	11.64
13.58	9.678
13.8	4.198
14.02	21.353
14.24	13.119
14.46	7.299
14.68	14.612
14.9	0.093
15.12	4.014
15.34	12.114
15.56	18.329
15.78	12.193
16	7.622
16.22	16.117
16.44	12.387
16.66	2.422
16.88	9.508
17.1	4.712
17.32	3.064
17.54	11.605
17.76	1.644
17.98	0.932
18.2	5.447
18.42	10.275
18.64	1.013
18.86	3.929
19.08	2.72
19.3	4.793
19.52	2.725
19.74	3.957
19.96	12.884
20.18	7.544
20.4	14.963
20.62	5.057
20.84	11.649
21.06	9.114
21.28	3.071
21.5	12.501
21.72	3.716
21.94	10.579
22.16	20.586
22.38	11.682
22.6	1.931
22.82	2.194
23.04	16.239
23.26	6.648
23.48	13.117
23.7	16.958
23.92	14.079
24.14	9.759
24.36	6.904
24.58	17.256
24.8	11.861
25.02	8.074
25.24	8.041
25.46	15.403
25.68	16.954
25.9	0.942
26.12	12.373
26.34	11.644
26.56	6.282
26.78	2.355
27	9.638
27.22	41.325
27.44	19.487
27.66	20.406
27.88	27.831
28.1	11.034
28.32	12.53
28.54	16.136
28.76	11.754
28.98	0.264
29.2	32.458
29.42	128.963
29.64	43.44
29.86	17.597
30.08	18.539
30.3	6.128
30.52	9.61
30.74	5.948
30.96	21.193
31.18	11.662
31.4	22.798
31.62	42.734
31.84	168.488
32.06	73.869
32.28	1.228
32.5	12.559
32.72	30.329
32.94	335.637
33.16	24.755
33.38	7.889
33.6	6.897
33.82	1.198
34.04	2.18
34.26	10.344
34.48	8.105
34.7	8.781
34.92	0.17
35.14	12.142
35.36	14.883
35.58	3.761
35.8	3.967
36.02	10.01
36.24	11.898
36.46	8.87
36.68	27.033
36.9	18.197
37.12	15.467
37.34	6.311
37.56	12.565
37.78	9.418
38	1.63
38.22	8.049
38.44	3.103
38.66	12.291
38.88	29.663
39.1	8.375
39.32	4.563
39.54	6.253
39.76	5.098
39.98	2.917
40.2	19.165
40.42	6.198
40.64	14.368
40.86	3.449
41.08	13.429
41.3	21.655
41.52	5.97
41.74	15.635
41.96	3.736
42.18	0.973
42.4	13.026
42.62	31.883
42.84	16.826
43.06	26.222
43.28	18.543
43.5	2.489
43.72	20.176
43.94	10.125
44.16	12.159
44.38	37.477
44.6	25.322
44.82	23.132
45.04	9.191
45.26	14.532
45.48	13.256
45.7	12.318
45.92	17.295
46.14	16.747
46.36	15.672
46.58	7.359
46.8	1.514
47.02	10.922
47.24	3.058
47.46	13.94
47.68	47.325
47.9	86.943
48.12	75.092
48.34	53.326
48.56	1.8
48.78	12.85
49	5.259
49.22	16.701
49.44	8.601
49.66	12.2
49.88	20.322
50.1	8.161
50.32	1.318
50.54	16.775
50.76	5.571
50.98	12.473
51.2	20.088
51.42	7.908
51.64	4.376
51.86	13.033
52.08	6.851
52.3	12.271
52.52	23.069
52.74	73.478
52.96	47.28
53.18	27.963
53.4	13.457
53.62	25.024
53.84	24.094
54.06	4.921
54.28	9.567
54.5	11.238
54.72	13.685
54.94	2.593
55.16	9.203
55.38	1.813
55.6	9.69
55.82	22.211
56.04	9.319
56.26	8.775
56.48	8.861
56.7	19.307
56.92	1.096
57.14	11.376
57.36	15.594
57.58	21.779
57.8	6.799
58.02	0.765
58.24	6.342
58.46	6.867
58.68	19.529
58.9	20.369
59.12	13.344
59.34	64.499
59.56	59.896
59.78	17.391
60	17.528
60.22	11.764
60.44	24.653
60.66	7.385
60.88	14.346
61.1	4.716
61.32	15.191
61.54	19.281
61.76	12.521
61.98	19.633
62.2	3.602
62.42	8.007
62.64	5.572
62.86	17.849
63.08	17.028
63.3	13.275
63.52	23.513
63.74	23.975
63.96	5.46
64.18	8.567
64.4	11.62
64.62	18.207
64.84	13.331
65.06	14.407
65.28	16.695
65.5	10.429
65.72	17.672
65.94	8.082
66.16	6.992
66.38	12.926
66.6	30.784
66.82	22.081
67.04	11.611
67.26	27.398
67.48	7.082
67.7	17.929
67.92	2.13
68.14	14.219
68.36	3.245
68.58	7.572
68.8	9.177
69.02	14.219
69.24	3.504
69.46	18.208
69.68	12.08
69.9	12.143
70.12	15.44
70.34	10.082
70.56	8.46
70.78	7.442
71	18.042
71.22	5.517
71.44	17.213
71.66	12.501
71.88	16.746
72.1	9.544
72.32	18.695
72.54	0.083
72.76	12.835
72.98	0.503
73.2	20.575
73.42	10.788
73.64	16.393
73.86	13.664
74.08	20.918
74.3	13.778
74.52	22.756
74.74	14.798
74.96	15.511
75.18	6.5
75.4	29.183
75.62	17.628
75.84	7.88
76.06	6.028
76.28	2.158
76.5	14.636
76.72	0.23
76.94	19.678
77.16	10.599
77.38	6.15
77.6	6.392
77.82	13.827
78.04	4.301
78.26	0.259
78.48	13.437
78.7	12.203
78.92	14.098
79.14	25.877
79.36	17.231
79.58	21.365
79.8	16.624
80.02	15.961
80.24	12.568
80.46	11.989
80.68	7
80.9	5.644
81.12	12.932
81.34	18.678
81.56	10.106
81.78	11.824
82	16.279
82.22	9.348
82.44	18.113
82.66	6.831
82.88	12.861
83.1	14.786
83.32	7.952
83.54	22.935
83.76	21.252
83.98	13.469
84.2	12.447
84.42	20.325
84.64	6.496
84.86	10.945
85.08	1.044
85.3	15.82
85.52	11.557
85.74	3.475
85.96	4.512
86.18	9.435
86.4	2.591
86.62	3.441
86.84	9.268
87.06	15.952
87.28	17.641
87.5	11.361
87.72	11.503
87.94	21.592
88.16	12.746
88.38	16.728
88.6	12.404
88.82	27.372
89.04	26.411
89.26	32.404
89.48	7.05
89.7	9.895
89.92	17.531
