Measurement: Powder, Xray Data XY Processed
Mineral: Creedite
Rruff sample: R050141
Ideal chemistry: Ca_3_Al_2_(S^6+^O_4_)(OH)_2_F_8_2H_2_O
Locality: Mina de Navidad, Rodeo, Durango, Mexico
Source: Dave Bunk Minerals
Description: Radiating group of bladed crystals
Diffraction sample description: Powder
Measured chemistry: Ca_3.00_Al_2.00_(S_1.00_O_4_)(OH)_2_(F_7.31_(OH)_0.69_)_Σ=8_·2H_2_O ; OH estimated by stoichiometry and charge balance OH=10-F
Cell parameters: a: 13.9533(6) b: 8.6087(3) c: 9.9874(3) alpha: 90. beta: 94.355(4) gamma: 90. volume: 1196.24(5) crystal system: monoclinic
x	intensity
5	0
5.22	9.255
5.44	10.092
5.66	20.156
5.88	6.05
6.1	9.874
6.32	24.754
6.54	1.433
6.76	8.411
6.98	8.178
7.2	4.742
7.42	4.469
7.64	2.911
7.86	1.794
8.08	6.655
8.3	13.331
8.52	6.429
8.74	0.73
8.96	8.243
9.18	4.268
9.4	6.315
9.62	3.396
9.84	5.322
10.06	4.371
10.28	1.536
10.5	4.248
10.72	3.798
10.94	5.646
11.16	2.512
11.38	2.319
11.6	6.138
11.82	6.947
12.04	56.926
12.26	14.473
12.48	3.379
12.7	87.313
12.92	13.658
13.14	8.222
13.36	1.583
13.58	9.535
13.8	8.419
14.02	4.774
14.24	6.937
14.46	11.044
14.68	1.703
14.9	9.96
15.12	10.309
15.34	137.398
15.56	7.192
15.78	11.385
16	0.193
16.22	4.036
16.44	3.371
16.66	4.57
16.88	0.843
17.1	4.859
17.32	1.175
17.54	2.161
17.76	18.159
17.98	0.475
18.2	1.348
18.42	9.701
18.64	5.724
18.86	6.432
19.08	12.592
19.3	3.738
19.52	6.531
19.74	4.248
19.96	4.056
20.18	2.784
20.4	3.782
20.62	5.475
20.84	0.009
21.06	10.945
21.28	4.777
21.5	3.433
21.72	25.029
21.94	9.914
22.16	2.161
22.38	6.215
22.6	68.555
22.82	232.386
23.04	36.517
23.26	3.5
23.48	7.898
23.7	4.122
23.92	2.43
24.14	25.505
24.36	31.641
24.58	4.413
24.8	3.294
25.02	1.108
25.24	0.217
25.46	15.415
25.68	211.635
25.9	11.27
26.12	9.265
26.34	3.088
26.56	2.228
26.78	3.396
27	1.502
27.22	15.669
27.44	38.682
27.66	5.75
27.88	2.571
28.1	1.706
28.32	6.308
28.54	1.249
28.76	11.183
28.98	16.987
29.2	28.862
29.42	5.074
29.64	1.032
29.86	3.044
30.08	9.015
30.3	7.273
30.52	2.486
30.74	7.474
30.96	33.449
31.18	2.563
31.4	3.534
31.62	3.44
31.84	41.938
32.06	0.683
32.28	5.534
32.5	91.576
32.72	5.399
32.94	28.044
33.16	9.015
33.38	10.004
33.6	3.833
33.82	7.929
34.04	11.464
34.26	12.643
34.48	46.79
34.7	4.954
34.92	2.692
35.14	0.696
35.36	1.104
35.58	8.504
35.8	24.629
36.02	37.766
36.24	10.822
36.46	0.388
36.68	2.843
36.9	16.133
37.12	7.218
37.34	14.137
37.56	7.999
37.78	3.684
38	0.694
38.22	0.81
38.44	23.072
38.66	134.248
38.88	17.327
39.1	4.953
39.32	104.062
39.54	2.205
39.76	1.539
39.98	4.66
40.2	5.667
40.42	5.048
40.64	5.038
40.86	1.018
41.08	8.604
41.3	24.453
41.52	3.259
41.74	26.91
41.96	37.498
42.18	8.141
42.4	7.02
42.62	2.333
42.84	1.964
43.06	18.787
43.28	5.644
43.5	0.439
43.72	4.328
43.94	20.175
44.16	3.927
44.38	30.838
44.6	2.256
44.82	81.742
45.04	3.12
45.26	13.553
45.48	12.462
45.7	1.538
45.92	76.327
46.14	9.239
46.36	3.011
46.58	16.136
46.8	19.416
47.02	16.822
47.24	9.816
47.46	41.784
47.68	1.29
47.9	2.009
48.12	26.034
48.34	0.199
48.56	42.432
48.78	6.675
49	8.295
49.22	27.203
49.44	9.494
49.66	6.949
49.88	7.18
50.1	0.056
50.32	46.168
50.54	6.471
50.76	2.606
50.98	4.682
51.2	1.577
51.42	0.294
51.64	1.329
51.86	4.429
52.08	4.479
52.3	12.999
52.52	9.226
52.74	11.119
52.96	3.978
53.18	1.969
53.4	13.001
53.62	11.934
53.84	1.836
54.06	15.848
54.28	0.949
54.5	13.004
54.72	7.485
54.94	30.389
55.16	4.374
55.38	4.626
55.6	1.745
55.82	20.008
56.04	8.007
56.26	11.021
56.48	9.907
56.7	0.423
56.92	12.493
57.14	22.504
57.36	14.5
57.58	11.544
57.8	0.431
58.02	10.561
58.24	0.481
58.46	6.794
58.68	12.394
58.9	8.644
59.12	3.87
59.34	1.15
59.56	1.39
59.78	8.534
60	9.609
60.22	0.573
60.44	3.618
60.66	4.516
60.88	35.342
61.1	5.984
61.32	8.142
61.54	1.07
61.76	0.286
61.98	3.566
62.2	10.777
62.42	11.961
62.64	5.079
62.86	2.868
63.08	4.876
63.3	3.849
63.52	5.735
63.74	7.644
63.96	10.776
64.18	10.895
64.4	6.058
64.62	12.805
64.84	12.651
65.06	7.759
65.28	0.781
65.5	1.785
65.72	15.789
65.94	5.743
66.16	4.83
66.38	9.671
66.6	10.778
66.82	2.868
67.04	4.932
67.26	0.879
67.48	2.855
67.7	4.108
67.92	4.309
68.14	0.425
68.36	11.552
68.58	4.759
68.8	1.988
69.02	7.262
69.24	2.133
69.46	10.191
69.68	3.434
69.9	1.457
70.12	1.764
70.34	4.049
70.56	4.902
70.78	1.106
71	6.555
71.22	16.354
71.44	26.878
71.66	15.824
71.88	3.843
72.1	8.538
72.32	2.461
72.54	0.492
72.76	1.626
72.98	3.034
73.2	8.06
73.42	6.345
73.64	1.504
73.86	0.756
74.08	3.05
74.3	6.233
74.52	1.633
74.74	2.621
74.96	1.707
75.18	9.632
75.4	5.539
75.62	4.493
75.84	7.543
76.06	2.41
76.28	1.29
76.5	6.017
76.72	8.782
76.94	0.281
77.16	4.711
77.38	2.762
77.6	16.694
77.82	7.701
78.04	6.731
78.26	5.524
78.48	0.462
78.7	6.588
78.92	11.702
79.14	9.903
79.36	2.088
79.58	4.915
79.8	4.792
80.02	1.613
80.24	4.578
80.46	8.569
80.68	6.541
80.9	8.49
81.12	14.529
81.34	6.721
81.56	0.388
81.78	4.266
82	5.452
82.22	0.438
82.44	4.408
82.66	4.335
82.88	2.282
83.1	4.262
83.32	4.492
83.54	11.318
83.76	4.228
83.98	4.464
84.2	1.627
84.42	5.53
84.64	1.631
84.86	5.85
85.08	3.02
85.3	4.217
85.52	1.337
85.74	3.243
85.96	8.44
86.18	3.374
86.4	6.167
86.62	2.089
86.84	3.064
87.06	0.047
87.28	4.922
87.5	2.884
87.72	4.902
87.94	7.011
88.16	12.04
88.38	3.036
88.6	15.448
88.82	2.628
89.04	4.932
89.26	5.379
89.48	2.645
89.7	5.315
89.92	0.841
