Measurement: Powder, Xray Data XY Processed
Mineral: Cristobalite
Rruff sample: R060648
Ideal chemistry: SiO_2_
Locality: Idaho, USA
Source: Gemological Institute of America
Description: Blue cryptocrystalline massive, variety opal
Diffraction sample description: Powder
Measured chemistry: Si_1.00_O_2_
Cell parameters: a: 4.9713(1) b: 4.9713(1) c: 6.9327(4) alpha: 90 beta: 90 gamma: 90 volume: 171.33(1) crystal system: tetragonal
x	intensity
5	0
5.22	7.24846
5.44	4.74069
5.66	3.47127
5.88	6.12235
6.1	5.54666
6.32	8.14697
6.54	13.1792
6.76	4.50755
6.98	13.0029
7.2	1.4621
7.42	12.9661
7.64	6.75503
7.86	12.2809
8.08	8.81202
8.3	5.19387
8.52	6.63406
8.74	1.71985
8.96	0.136548
9.18	5.40807
9.4	9.65191
9.62	7.83744
9.84	4.05098
10.06	5.65418
10.28	1.00478
10.5	9.39052
10.72	9.03869
10.94	5.32846
11.16	6.56012
11.38	6.6913
11.6	4.82842
11.82	4.09687
12.04	1.11522
12.26	4.02306
12.48	9.60274
12.7	3.49314
12.92	4.22191
13.14	11.1179
13.36	11.1849
13.58	5.18139
13.8	3.21058
14.02	3.32097
14.24	3.43699
14.46	6.43826
14.68	9.4047
14.9	7.3458
15.12	5.31177
15.34	2.19682
15.56	2.94848
15.78	2.06908
16	3.95915
16.22	2.64984
16.44	4.55379
16.66	5.20524
16.88	10.0271
17.1	0.181
17.32	0.654155
17.54	3.514
17.76	5.33422
17.98	4.28263
18.2	7.28329
18.42	8.63896
18.64	5.22979
18.86	4.77227
19.08	5.174
19.3	7.03726
19.52	5.73358
19.74	14.9107
19.96	13.7728
20.18	7.50147
20.4	6.70895
20.62	3.47738
20.84	36.0861
21.06	20.6973
21.28	28.2541
21.5	37.9993
21.72	106.719
21.94	765.098
22.16	287.599
22.38	55.6326
22.6	29.7786
22.82	0.99762
23.04	2.51234
23.26	0.827982
23.48	12.656
23.7	4.4726
23.92	5.02969
24.14	6.51349
24.36	10.445
24.58	15.3486
24.8	14.7197
25.02	9.82408
25.24	7.02084
25.46	6.94341
25.68	12.7453
25.9	9.9836
26.12	4.22042
26.34	4.9243
26.56	15.5198
26.78	9.84039
27	10.3622
27.22	0.504501
27.44	4.88788
27.66	3.39175
27.88	9.39568
28.1	13.4886
28.32	24.1633
28.54	63.3346
28.76	20.2546
28.98	3.58382
29.2	0.718127
29.42	5.88166
29.64	6.20356
29.86	2.3759
30.08	0.412342
30.3	6.12774
30.52	4.72396
30.74	2.39381
30.96	1.35597
31.18	9.52144
31.4	71.5881
31.62	47.51
31.84	9.10563
32.06	6.23704
32.28	0.61359
32.5	7.06886
32.72	0.424067
32.94	8.27842
33.16	10.7819
33.38	6.8787
33.6	6.0134
33.82	17.1765
34.04	8.11684
34.26	6.9188
34.48	0.23395
34.7	9.54318
34.92	8.14683
35.14	4.69925
35.36	12.0842
35.58	6.64183
35.8	14.319
36.02	69.3286
36.24	97.1771
36.46	58.5287
36.68	21.6095
36.9	7.55104
37.12	1.77624
37.34	2.21901
37.56	8.68219
37.78	7.33477
38	6.62891
38.22	8.95109
38.44	8.37708
38.66	4.65301
38.88	7.57546
39.1	9.56411
39.32	8.91235
39.54	13.3822
39.76	5.77312
39.98	3.78991
40.2	4.59183
40.42	10.5912
40.64	13.7142
40.86	2.6142
41.08	4.13362
41.3	10.9137
41.52	3.68325
41.74	11.271
41.96	2.62535
42.18	9.65363
42.4	4.45135
42.62	7.23912
42.84	16.1396
43.06	3.03889
43.28	10.386
43.5	2.39493
43.72	12.4661
43.94	10.5645
44.16	8.6749
44.38	12.8648
44.6	17.6991
44.82	28.2104
45.04	5.25602
45.26	2.25435
45.48	10.191
45.7	3.83291
45.92	2.18001
46.14	2.69923
46.36	13.6206
46.58	7.56891
46.8	16.8004
47.02	29.6584
47.24	19.0703
47.46	6.09389
47.68	2.18404
47.9	11.0646
48.12	3.5711
48.34	10.7912
48.56	25.3967
48.78	24.6676
49	15.0458
49.22	7.18028
49.44	9.45754
49.66	7.03274
49.88	10.3598
50.1	8.85364
50.32	8.02667
50.54	0.211789
50.76	2.96957
50.98	7.70925
51.2	12.6745
51.42	6.52879
51.64	8.21514
51.86	10.1866
52.08	11.8763
52.3	4.95898
52.52	2.70547
52.74	7.61717
52.96	8.57374
53.18	2.34087
53.4	4.22299
53.62	6.3484
53.84	6.71629
54.06	18.7964
54.28	13.5829
54.5	6.50075
54.72	9.14849
54.94	2.5699
55.16	0.489952
55.38	9.52243
55.6	1.74541
55.82	0.748587
56.04	1.55231
56.26	10.0409
56.48	2.9373
56.7	6.27846
56.92	6.58436
57.14	27.5735
57.36	10.4264
57.58	17.5402
57.8	5.72799
58.02	8.67195
58.24	7.63055
58.46	3.88451
58.68	0.869448
58.9	11.8302
59.12	6.39323
59.34	6.01544
59.56	12.281
59.78	7.17798
60	1.97575
60.22	13.7597
60.44	23.7206
60.66	5.25019
60.88	1.10975
61.1	4.2511
61.32	5.46142
61.54	3.88143
61.76	9.36172
61.98	17.4423
62.2	18.609
62.42	11.9939
62.64	8.19741
62.86	3.30942
63.08	1.20966
63.3	8.32105
63.52	13.7241
63.74	8.59041
63.96	9.26181
64.18	2.87117
64.4	1.42483
64.62	3.2238
64.84	9.88983
65.06	17.9372
65.28	9.87668
65.5	9.6164
65.72	13.4707
65.94	6.38957
66.16	9.42265
66.38	8.6448
66.6	4.08363
66.82	13.1364
67.04	11.271
67.26	7.16608
67.48	1.55079
67.7	10.3911
67.92	3.28348
68.14	8.1457
68.36	5.50971
68.58	4.15967
68.8	7.95725
69.02	5.36131
69.24	2.19712
69.46	13.1134
69.68	8.19694
69.9	21.3791
70.12	1.92586
70.34	3.21764
70.56	8.49944
70.78	2.37934
71	2.75602
71.22	1.96738
71.44	5.22586
71.66	4.42708
71.88	0.583891
72.1	4.79719
72.32	2.766
72.54	13.5576
72.76	16.2969
72.98	8.25354
73.2	7.03186
73.42	4.07803
73.64	3.08477
73.86	16.3802
74.08	14.6996
74.3	8.84205
74.52	4.94459
74.74	10.3147
74.96	6.76316
75.18	8.96706
75.4	2.24658
75.62	14.9826
75.84	2.82287
76.06	0.268922
76.28	5.40391
76.5	6.06328
76.72	1.95935
76.94	0.745404
77.16	7.46329
77.38	11.4582
77.6	6.30631
77.82	1.8434
78.04	8.39288
78.26	6.39235
78.48	8.43058
78.7	3.53376
78.92	11.6027
79.14	8.57589
79.36	5.78385
79.58	8.89689
79.8	3.37678
80.02	0.173603
80.24	8.85016
80.46	1.60886
80.68	4.36249
80.9	3.04804
81.12	8.75216
81.34	10.6822
81.56	7.55257
81.78	6.98688
82	7.91086
82.22	13.2482
82.44	6.60529
82.66	5.98734
82.88	10.2127
83.1	6.9349
83.32	1.37274
83.54	1.78555
83.76	11.0348
83.98	4.48589
84.2	1.26862
84.42	12.8978
84.64	6.86591
84.86	1.06252
85.08	1.98612
85.3	7.87262
85.52	7.76928
85.74	6.80798
85.96	9.73791
86.18	9.65767
86.4	7.63751
86.62	10.9611
86.84	5.04495
87.06	6.78018
87.28	5.87607
87.5	4.8012
87.72	10.6888
87.94	3.35939
88.16	8.09701
88.38	2.93736
88.6	6.66905
88.82	4.52813
89.04	18.0068
89.26	2.68126
89.48	15.6241
89.7	10.6957
89.92	6.52783
