Measurement: Powder, Xray Data XY Processed
Mineral: Crocoite
Rruff sample: R050044
Ideal chemistry: Pb^2+^Cr^6+^O_4_
Locality: Red Ledge mine, Dundas, Tasmania
Source: Eugene Schlepp
Description: Red crystal fragment
Diffraction sample description: Powder
Measured chemistry: Pb_1.02_Cr_0.99_O_4_
Cell parameters: a: 7.1281(5) b: 7.4375(3) c: 6.7990(5) alpha: 90. beta: 102.445(6) gamma: 90. volume: 351.99(3) crystal system: monoclinic
x	intensity
5	0
5.22	7.087
5.44	0.095
5.66	4.374
5.88	11.734
6.1	9.316
6.32	13.502
6.54	10.76
6.76	6.073
6.98	2.318
7.2	6.446
7.42	2.596
7.64	6.072
7.86	3.052
8.08	4.247
8.3	6.097
8.52	8.218
8.74	2.465
8.96	0.426
9.18	7.282
9.4	4.449
9.62	2.448
9.84	8.331
10.06	2.113
10.28	0.168
10.5	11.234
10.72	7.279
10.94	4.326
11.16	1.387
11.38	5.681
11.6	0.091
11.82	2.884
12.04	5.116
12.26	2.73
12.48	0.354
12.7	4.329
12.92	1.277
13.14	4.317
13.36	3.176
13.58	1.067
13.8	6.866
14.02	3.729
14.24	6.687
14.46	7.458
14.68	1.489
14.9	7.538
15.12	1.494
15.34	5.244
15.56	10.048
15.78	9.046
16	2.744
16.22	9.659
16.44	40.389
16.66	1.184
16.88	3.937
17.1	3.719
17.32	5.815
17.54	25.834
17.76	3.835
17.98	102.03
18.2	2.959
18.42	11.207
18.64	0.612
18.86	7.569
19.08	0.381
19.3	4.677
19.52	0.765
19.74	2.573
19.96	0.411
20.18	9.422
20.4	73.698
20.62	9.915
20.84	9.812
21.06	4.816
21.28	1.099
21.5	0.027
21.72	8.206
21.94	7.394
22.16	10.261
22.38	7.311
22.6	11.131
22.82	4.671
23.04	6.299
23.26	7.349
23.48	7.994
23.7	48.91
23.92	21.819
24.14	15.501
24.36	6.994
24.58	16.507
24.8	2.121
25.02	4.072
25.24	0.246
25.46	18.55
25.68	238.832
25.9	20.298
26.12	1.576
26.34	1.874
26.56	2.519
26.78	2.242
27	35.176
27.22	389.864
27.44	46.5
27.66	16.559
27.88	2.404
28.1	2.5
28.32	25.547
28.54	3.669
28.76	4.886
28.98	21.185
29.2	17.305
29.42	50.424
29.64	88.076
29.86	84.716
30.08	9.216
30.3	0.306
30.52	1.274
30.74	8.032
30.96	7.91
31.18	5.296
31.4	3.655
31.62	5.139
31.84	3.621
32.06	7.501
32.28	1.557
32.5	10.313
32.72	1.088
32.94	8.975
33.16	40.859
33.38	5.156
33.6	8.869
33.82	10.683
34.04	2.859
34.26	2.86
34.48	8.611
34.7	19.419
34.92	6.369
35.14	14.382
35.36	50.173
35.58	7.988
35.8	11.547
36.02	3.929
36.24	3.044
36.46	7.629
36.68	13.318
36.9	5.662
37.12	6.49
37.34	1.482
37.56	3.446
37.78	5.306
38	6
38.22	7.562
38.44	4.371
38.66	11.773
38.88	42.248
39.1	5.49
39.32	11.098
39.54	10.244
39.76	4.033
39.98	64.059
40.2	59.295
40.42	10.807
40.64	4.753
40.86	11.826
41.08	7.262
41.3	7.882
41.52	5.427
41.74	2.486
41.96	18.172
42.18	6.154
42.4	3.986
42.62	1.916
42.84	1.386
43.06	10.092
43.28	48.803
43.5	14.722
43.72	8.304
43.94	2.915
44.16	19.591
44.38	7.311
44.6	4.103
44.82	1.942
45.04	2.6
45.26	11.197
45.48	14.246
45.7	29.624
45.92	83.833
46.14	69.087
46.36	21.276
46.58	4.592
46.8	8.86
47.02	3.004
47.24	7.217
47.46	5.504
47.68	18.347
47.9	38.037
48.12	15.21
48.34	3.238
48.56	3.4
48.78	30.65
49	32.242
49.22	31.797
49.44	72.598
49.66	8.324
49.88	15.004
50.1	5.472
50.32	23.399
50.54	7.018
50.76	14.78
50.98	6.514
51.2	4.271
51.42	10.066
51.64	2.595
51.86	5.897
52.08	16.664
52.3	4.497
52.52	4.06
52.74	15.759
52.96	7.53
53.18	10.179
53.4	2.842
53.62	7.691
53.84	11.7
54.06	38.625
54.28	35.333
54.5	13.275
54.72	2.862
54.94	1.339
55.16	0.559
55.38	20.661
55.6	11.89
55.82	3.946
56.04	13.813
56.26	14.544
56.48	13.666
56.7	3.349
56.92	6.144
57.14	21.732
57.36	15.831
57.58	13.31
57.8	14.346
58.02	5.372
58.24	5.797
58.46	1.091
58.68	6.877
58.9	8.802
59.12	4.489
59.34	2.06
59.56	15.55
59.78	5.092
60	18.296
60.22	9.259
60.44	10.664
60.66	5.57
60.88	5.832
61.1	5.014
61.32	4.533
61.54	3.521
61.76	8.588
61.98	3.883
62.2	1.765
62.42	0.354
62.64	9.38
62.86	8.159
63.08	5.776
63.3	10.206
63.52	6.669
63.74	2.07
63.96	0.315
64.18	4.123
64.4	6.347
64.62	6.888
64.84	6.456
65.06	16.626
65.28	0.527
65.5	6.87
65.72	34.744
65.94	25.645
66.16	2.34
66.38	14.567
66.6	3.987
66.82	21.226
67.04	19.498
67.26	15.036
67.48	8.221
67.7	9.08
67.92	6.817
68.14	13.064
68.36	5.31
68.58	5.684
68.8	2.356
69.02	10.47
69.24	32.53
69.46	8.862
69.68	7.83
69.9	7.127
70.12	1.365
70.34	5.829
70.56	5.581
70.78	15.761
71	10.563
71.22	0.855
71.44	4.668
71.66	3.502
71.88	8.291
72.1	11.065
72.32	20.83
72.54	32.94
72.76	22.002
72.98	11.444
73.2	17.63
73.42	10.942
73.64	4.198
73.86	4.738
74.08	5.632
74.3	7.94
74.52	14.191
74.74	11.39
74.96	4.189
75.18	0.464
75.4	8.336
75.62	9.979
75.84	8.724
76.06	7.468
76.28	5.017
76.5	0.049
76.72	1.679
76.94	15.679
77.16	9.516
77.38	5.439
77.6	4.628
77.82	6.595
78.04	2.56
78.26	1.823
78.48	6.995
78.7	2.18
78.92	12.7
79.14	9.292
79.36	8.511
79.58	5.944
79.8	3.003
80.02	5.133
80.24	0.69
80.46	5.296
80.68	7.06
80.9	0.07
81.12	10.019
81.34	10.62
81.56	2.122
81.78	3.73
82	5.649
82.22	0.344
82.44	14.867
82.66	13.194
82.88	12.665
83.1	1.956
83.32	12.113
83.54	1.88
83.76	7.262
83.98	0.647
84.2	5.838
84.42	15.626
84.64	10.687
84.86	8.446
85.08	5.795
85.3	6.558
85.52	8.167
85.74	8.36
85.96	11.352
86.18	17.182
86.4	16.998
86.62	8.733
86.84	9.725
87.06	2.672
87.28	2.839
87.5	4.92
87.72	7.044
87.94	4.163
88.16	1.445
88.38	1.774
88.6	0.963
88.82	5.822
89.04	15.31
89.26	7.493
89.48	9.018
89.7	6.301
89.92	4.564
