Measurement: Powder, Xray Data XY Processed
Mineral: Cubic zirconia
Rruff sample: R040142
Ideal chemistry: ZrO_2_
Locality: synthetic
Source: Bob Downs
Description: Fragment of a colorless single crystal
Diffraction sample description: Powder
Measured chemistry: (Zr_0.86_Y_0.17_Hf_0.01_)O_2_
Cell parameters: a: 5.14161(9) b: 5.14161(9) c: 5.14161(9) alpha: 90. beta: 90. gamma: 90. volume: 135.924(7) crystal system: cubic
x	intensity
5	0
5.22	2.746
5.44	10.4252
5.66	0.739261
5.88	3.90974
6.1	3.09818
6.32	0.324346
6.54	7.09651
6.76	5.26949
6.98	16.4286
7.2	5.81273
7.42	8.0034
7.64	1.19095
7.86	4.45407
8.08	1.74377
8.3	2.88665
8.52	3.98759
8.74	1.01222
8.96	3.21997
9.18	4.24755
9.4	1.94377
9.62	6.84907
9.84	1.95714
10.06	5.01627
10.28	6.91486
10.5	5.76859
10.72	6.80344
10.94	2.86412
11.16	2.81671
11.38	3.64151
11.6	1.64385
11.82	2.62757
12.04	4.48821
12.26	0.525802
12.48	4.55912
12.7	1.64553
12.92	1.69005
13.14	6.78184
13.36	7.84008
13.58	0.130006
13.8	7.05529
14.02	2.29862
14.24	5.44233
14.46	5.58409
14.68	0.156353
14.9	2.7133
15.12	3.75756
15.34	6.93379
15.56	6.88692
15.78	6.87
16	7.76213
16.22	3.60114
16.44	5.52674
16.66	1.41322
16.88	1.34216
17.1	5.18745
17.32	6.18837
17.54	4.13598
17.76	3.93197
17.98	4.82242
18.2	2.87695
18.42	10.9861
18.64	3.90755
18.86	3.84508
19.08	2.97335
19.3	6.90766
19.52	3.96151
19.74	5.93954
19.96	5.99693
20.18	1.02116
20.4	3.01911
20.62	4.95846
20.84	3.82566
21.06	1.81289
21.28	3.03032
21.5	0.871152
21.72	3.98129
21.94	1.84744
22.16	3.92044
22.38	3.8282
22.6	3.86724
22.82	4.81267
23.04	3.86211
23.26	7.81501
23.48	4.87004
23.7	4.63941
23.92	4.63643
24.14	5.62234
24.36	1.59873
24.58	2.56507
24.8	9.7828
25.02	8.67469
25.24	4.77887
25.46	2.70688
25.68	3.73182
25.9	7.74615
26.12	3.72828
26.34	3.80113
26.56	5.96131
26.78	9.92303
27	8.04275
27.22	13.0126
27.44	8.28966
27.66	3.00824
27.88	9.64374
28.1	3.15032
28.32	8.3269
28.54	0.465276
28.76	5.25298
28.98	3.10638
29.2	5.07642
29.42	10.8969
29.64	21.6701
29.86	63.8372
30.08	484.299
30.3	229.435
30.52	40.4723
30.74	18.2428
30.96	2.293
31.18	11.5563
31.4	6.38124
31.62	9.49756
31.84	1.57
32.06	5.20107
32.28	3.03298
32.5	4.34349
32.72	0.472216
32.94	11.6891
33.16	2.33546
33.38	7.75493
33.6	2.04609
33.82	5.75984
34.04	6.35387
34.26	2.06464
34.48	6.95792
34.7	14.8347
34.92	392.078
35.14	38.215
35.36	7.48273
35.58	5.12563
35.8	3.47574
36.02	4.9942
36.24	2.44781
36.46	1.83641
36.68	3.14843
36.9	7.55937
37.12	5.52489
37.34	5.58375
37.56	2.53077
37.78	8.63388
38	4.37922
38.22	9.35445
38.44	7.10847
38.66	7.08791
38.88	7.96837
39.1	7.05332
39.32	0.885474
39.54	0.865681
39.76	0.058419
39.98	2.07029
40.2	1.03608
40.42	4.98898
40.64	6.07486
40.86	7.1597
41.08	7.21209
41.3	2.31807
41.52	3.2836
41.74	8.19417
41.96	1.12633
42.18	5.83883
42.4	3.73393
42.62	2.65481
42.84	1.45226
43.06	2.50266
43.28	2.37363
43.5	7.20658
43.72	7.99674
43.94	4.82437
44.16	0.017471
44.38	1.10715
44.6	2.10397
44.82	6.20879
45.04	13.4414
45.26	6.53485
45.48	4.30761
45.7	3.27187
45.92	1.23062
46.14	2.3094
46.36	11.3199
46.58	5.08849
46.8	0.266111
47.02	6.21459
47.24	11.2812
47.46	9.86396
47.68	1.57318
47.9	5.44418
48.12	3.10314
48.34	6.3994
48.56	4.51818
48.78	2.66085
49	3.30568
49.22	1.42917
49.44	14.5906
49.66	8.71431
49.88	39.1549
50.1	160.834
50.32	450.629
50.54	45.8992
50.76	20.4861
50.98	12.4008
51.2	9.06117
51.42	4.97138
51.64	0.097751
51.86	6.64702
52.08	7.37832
52.3	6.99343
52.52	3.4882
52.74	2.60372
52.96	3.98587
53.18	7.20082
53.4	8.28905
53.62	4.41534
53.84	4.71105
54.06	1.68871
54.28	0.177303
54.5	0.912619
54.72	3.17713
54.94	0.212378
55.16	2.2972
55.38	3.18766
55.6	11.0893
55.82	9.96291
56.04	8.81427
56.26	2.83269
56.48	4.82802
56.7	6.67901
56.92	1.51702
57.14	4.7801
57.36	3.3793
57.58	9.94947
57.8	10.36
58.02	6.57562
58.24	6.81428
58.46	0.862811
58.68	0.908066
58.9	1.17264
59.12	4.57381
59.34	35.7434
59.56	151.007
59.78	234.278
60	40.5186
60.22	11.2287
60.44	2.81418
60.66	2.35372
60.88	5.26896
61.1	3.95864
61.32	11.503
61.54	0.000485
61.76	3.47788
61.98	8.8567
62.2	8.929
62.42	10.9016
62.64	44.9185
62.86	13.4063
63.08	2.76419
63.3	6.87731
63.52	10.1393
63.74	3.51067
63.96	3.88119
64.18	5.13897
64.4	10.4355
64.62	5.63447
64.84	8.75828
65.06	2.79639
65.28	9.49352
65.5	2.49799
65.72	7.35555
65.94	4.36624
66.16	2.38194
66.38	2.50076
66.6	4.62542
66.82	4.7111
67.04	5.81539
67.26	4.97164
67.48	1.1039
67.7	0.178053
67.92	3.23597
68.14	3.33696
68.36	0.476193
68.58	4.42544
68.8	8.20888
69.02	2.22782
69.24	2.32385
69.46	5.22297
69.68	6.42662
69.9	7.32043
70.12	5.42675
70.34	5.37729
70.56	3.39296
70.78	1.67139
71	2.21699
71.22	5.25577
71.44	3.1406
71.66	7.12693
71.88	4.94904
72.1	1.74971
72.32	5.57822
72.54	4.28818
72.76	2.09086
72.98	5.88781
73.2	7.70175
73.42	6.54462
73.64	49.5251
73.86	44.8827
74.08	7.05423
74.3	4.98398
74.52	7.11998
74.74	3.35908
74.96	8.56328
75.18	3.91739
75.4	1.1324
75.62	6.32687
75.84	11.5885
76.06	1.68736
76.28	3.54927
76.5	5.62849
76.72	4.77921
76.94	0.271676
77.16	3.77981
77.38	0.112221
77.6	4.76891
77.82	2.98239
78.04	3.84089
78.26	4.04878
78.48	3.97666
78.7	0.621675
78.92	4.64078
79.14	5.46584
79.36	3.30306
79.58	4.87852
79.8	5.41037
80.02	5.89019
80.24	1.08807
80.46	2.42343
80.68	4.75499
80.9	3.28367
81.12	4.82756
81.34	13.3356
81.56	130.045
81.78	68.1223
82	17.4444
82.22	12.4352
82.44	0.485363
82.66	2.59669
82.88	1.70472
83.1	4.8006
83.32	0.871072
83.54	0.949638
83.76	4.13266
83.98	9.23753
84.2	141.137
84.42	64.1374
84.64	11.4778
84.86	4.96619
85.08	4.41955
85.3	1.84259
85.52	9.52352
85.74	3.00907
85.96	5.49507
86.18	7.9363
86.4	2.08918
86.62	9.35231
86.84	6.43297
87.06	2.49421
87.28	5.42098
87.5	7.59284
87.72	9.53908
87.94	4.52438
88.16	5.64444
88.38	6.65826
88.6	3.55817
88.82	3.61823
89.04	3.77233
89.26	5.93779
89.48	6.91555
89.7	14.5059
89.92	1.40435
