Measurement: Powder, Xray Data XY Processed
Mineral: Cuprite
Rruff sample: R140763
Ideal chemistry: Cu^1+^_2_O
Locality: Milpillas mine, Municipio de Santa Cruz, Sonora, Mexico
Source: Marcus Origlieri
Description: Semimetallic deep red, massive
Diffraction sample description: Powder
Cell parameters: a: 4.26862(4) b: 4.26862(4) c: 4.26862(4) alpha: 90 beta: 90 gamma: 90 volume: 77.779(2) crystal system: cubic
x	intensity
5	0
5.22	55.2758
5.44	34.1906
5.66	7.83817
5.88	17.1001
6.1	25.6964
6.32	2.63065
6.54	44.2206
6.76	11.0082
6.98	23.129
7.2	16.4393
7.42	19.716
7.64	37.5746
7.86	34.4162
8.08	28.7554
8.3	76.9994
8.52	24.7095
8.74	45.1996
8.96	30.4922
9.18	51.5661
9.4	15.66
9.62	54.932
9.84	43.3083
10.06	20.5475
10.28	23.391
10.5	1.34064
10.72	50.5743
10.94	25.3213
11.16	35.1726
11.38	29.477
11.6	32.4566
11.82	8.75491
12.04	63.4245
12.26	53.9177
12.48	38.6514
12.7	29.5396
12.92	42.8175
13.14	7.99674
13.36	33.9125
13.58	46.0893
13.8	37.517
14.02	38.3994
14.24	27.3536
14.46	54.9489
14.68	10.8353
14.9	45.2479
15.12	0.675385
15.34	34.3944
15.56	43.0974
15.78	17.6228
16	40.6172
16.22	29.036
16.44	10.2026
16.66	35.5953
16.88	3.21118
17.1	48.4322
17.32	21.8357
17.54	47.9286
17.76	43.2752
17.98	30.8657
18.2	36.585
18.42	34.3339
18.64	49.4901
18.86	45.1145
19.08	56.91
19.3	22.1355
19.52	15.4743
19.74	14.0066
19.96	30.6534
20.18	39.0334
20.4	8.96201
20.62	29.6956
20.84	28.3032
21.06	31.8807
21.28	41.3752
21.5	17.8222
21.72	29.4492
21.94	69.2436
22.16	7.18424
22.38	52.8476
22.6	44.1128
22.82	63.8891
23.04	28.8916
23.26	31.2727
23.48	57.9597
23.7	22.9437
23.92	34.1001
24.14	36.2034
24.36	30.847
24.58	44.4815
24.8	5.32248
25.02	67.0028
25.24	82.7761
25.46	68.9416
25.68	31.7406
25.9	12.7462
26.12	57.8504
26.34	22.8279
26.56	39.3135
26.78	26.3705
27	51.4871
27.22	55.1425
27.44	23.4984
27.66	6.45371
27.88	38.1728
28.1	33.3289
28.32	13.8947
28.54	34.4057
28.76	26.506
28.98	4.52573
29.2	69.8704
29.42	253.986
29.64	114.861
29.86	31.0551
30.08	52.8423
30.3	18.9643
30.52	33.1292
30.74	15.0147
30.96	22.261
31.18	7.52212
31.4	21.083
31.62	53.6136
31.84	53.0013
32.06	69.4056
32.28	29.6034
32.5	36.743
32.72	145.137
32.94	54.5142
33.16	42.8664
33.38	37.3523
33.6	52.5299
33.82	32.6857
34.04	68.1131
34.26	12.7559
34.48	48.4259
34.7	34.9231
34.92	68.153
35.14	32.5312
35.36	29.4674
35.58	50.4313
35.8	129.59
36.02	459.264
36.24	2480.41
36.46	3169.88
36.68	502.579
36.9	136.786
37.12	77.774
37.34	0.813721
37.56	23.255
37.78	19.8206
38	60.4228
38.22	4.31747
38.44	1.85352
38.66	43.4899
38.88	18.6547
39.1	23.4677
39.32	30.8917
39.54	50.5081
39.76	19.7465
39.98	5.28537
40.2	22.2265
40.42	9.7197
40.64	6.97211
40.86	29.8777
41.08	22.9353
41.3	60.605
41.52	14.3122
41.74	87.7823
41.96	216.128
42.18	1269.84
42.4	685.139
42.62	159.205
42.84	30.8421
43.06	66.8062
43.28	12.0176
43.5	68.1164
43.72	6.77856
43.94	27.0785
44.16	60.8665
44.38	9.35858
44.6	31.2445
44.82	39.2538
45.04	11.5986
45.26	26.8884
45.48	51.0388
45.7	34.5121
45.92	68.4782
46.14	14.3083
46.36	27.9469
46.58	4.00629
46.8	44.2379
47.02	13.9528
47.24	14.0666
47.46	39.8471
47.68	28.6208
47.9	27.8517
48.12	54.9672
48.34	38.1833
48.56	39.0671
48.78	39.8251
49	35.2696
49.22	48.7815
49.44	32.0918
49.66	5.36905
49.88	0.844086
50.1	34.5517
50.32	34.9638
50.54	18.6019
50.76	18.1367
50.98	50.1051
51.2	35.4511
51.42	14.5401
51.64	15.9104
51.86	23.5035
52.08	44.0388
52.3	61.0987
52.52	19.4968
52.74	8.57648
52.96	61.3712
53.18	14.3035
53.4	60.4464
53.62	8.56278
53.84	31.9645
54.06	14.3165
54.28	14.1579
54.5	32.1187
54.72	50.1401
54.94	25.7424
55.16	44.7956
55.38	53.2935
55.6	21.8007
55.82	12.1191
56.04	18.152
56.26	21.2883
56.48	72.5554
56.7	51.5549
56.92	46.4654
57.14	45.9625
57.36	39.2475
57.58	37.5933
57.8	58.8795
58.02	36.936
58.24	27.9073
58.46	48.8805
58.68	7.96619
58.9	2.0231
59.12	64.2456
59.34	58.4578
59.56	1.548
59.78	5.89072
60	29.6738
60.22	19.6398
60.44	31.7472
60.66	57.3428
60.88	112.052
61.1	252.765
61.32	759.626
61.54	350.241
61.76	137.493
61.98	31.5554
62.2	30.0691
62.42	4.83157
62.64	34.2183
62.86	11.5422
63.08	41.6007
63.3	37.2642
63.52	41.9666
63.74	11.8865
63.96	34.8267
64.18	53.4485
64.4	57.6602
64.62	34.1866
64.84	29.107
65.06	53.6791
65.28	4.49121
65.5	32.4478
65.72	1.35214
65.94	53.522
66.16	43.2368
66.38	31.2174
66.6	32.203
66.82	62.1551
67.04	24.0061
67.26	27.6226
67.48	4.94022
67.7	35.7509
67.92	18.3149
68.14	16.5402
68.36	10.4583
68.58	1.23602
68.8	25.3496
69.02	35.9496
69.24	57.1982
69.46	42.4584
69.68	5.62534
69.9	43.2363
70.12	7.82111
70.34	40.5269
70.56	43.5814
70.78	52.5465
71	2.88226
71.22	19.396
71.44	37.5725
71.66	30.0704
71.88	16.8852
72.1	16.7934
72.32	57.6992
72.54	31.546
72.76	24.2154
72.98	66.5383
73.2	172.896
73.42	372.109
73.64	331.813
73.86	181.446
74.08	45.2754
74.3	13.8274
74.52	11.9226
74.74	24.7631
74.96	24.1159
75.18	23.5462
75.4	7.56168
75.62	0.069946
75.84	33.124
76.06	13.8027
76.28	47.8098
76.5	34.1224
76.72	34.3544
76.94	72.4563
77.16	59.8349
77.38	128.642
77.6	43.2259
77.82	45.973
78.04	35.3523
78.26	53.9511
78.48	40.973
78.7	24.8775
78.92	4.12421
79.14	46.5863
79.36	44.0744
79.58	45.0194
79.8	40.6258
80.02	42.1279
80.24	22.9843
80.46	78.4471
80.68	32.4446
80.9	26.8567
81.12	9.98126
81.34	28.9069
81.56	21.2411
81.78	15.0845
82	16.5019
82.22	39.4771
82.44	17.892
82.66	7.71451
82.88	25.9195
83.1	33.3807
83.32	6.7663
83.54	50.2968
83.76	23.9891
83.98	33.8901
84.2	10.1193
84.42	1.06552
84.64	24.057
84.86	37.7898
85.08	25.1809
85.3	53.4939
85.52	32.7057
85.74	9.45682
85.96	33.5273
86.18	27.3374
86.4	17.6275
86.62	26.9602
86.84	27.377
87.06	15.8271
87.28	1.02939
87.5	41.04
87.72	75.5181
87.94	52.4371
88.16	55.2593
88.38	36.0439
88.6	3.96762
88.82	8.40738
89.04	28.5264
89.26	33.416
89.48	41.6982
89.7	30.2681
89.92	29.6983
