Measurement: Powder, Xray Data XY Processed
Mineral: Cuprite
Rruff sample: R050384
Ideal chemistry: Cu^1+^_2_O
Locality: Lavender Pit, Bisbee, Warren District, Cochise County, Arizona, USA
Source: University of Arizona Mineral Museum
Description: Deep red to nearly black cubes
Diffraction sample description: Powder
Measured chemistry: Cu_2.00_O
Cell parameters: a: 4.2700(2) b: 4.2700(2) c: 4.2700(2) alpha: 90. beta: 90. gamma: 90. volume: 77.855(9) crystal system: cubic
x	intensity
5	0
5.22	13.9445
5.44	32.475
5.66	9.67716
5.88	10.2349
6.1	8.04202
6.32	5.63541
6.54	20.573
6.76	3.95252
6.98	6.09473
7.2	11.0581
7.42	24.8581
7.64	4.16774
7.86	25.6837
8.08	19.9541
8.3	27.559
8.52	9.36362
8.74	11.2607
8.96	30.7841
9.18	38.9275
9.4	27.4878
9.62	14.6441
9.84	17.933
10.06	34.1046
10.28	9.06846
10.5	5.2782
10.72	21.4581
10.94	13.0927
11.16	10.6673
11.38	8.14128
11.6	12.1046
11.82	2.94049
12.04	10.6769
12.26	1.70055
12.48	10.8428
12.7	19.4132
12.92	12.8519
13.14	8.36985
13.36	14.7442
13.58	16.2581
13.8	15.5628
14.02	11.9994
14.24	30.0508
14.46	21.9712
14.68	5.66147
14.9	7.42601
15.12	8.23739
15.34	14.2686
15.56	12.3474
15.78	23.6559
16	18.7584
16.22	27.5979
16.44	14.875
16.66	6.93103
16.88	7.53445
17.1	32.1649
17.32	19.3919
17.54	10.7593
17.76	18.6073
17.98	19.4846
18.2	7.68281
18.42	8.33263
18.64	1.28013
18.86	20.9302
19.08	10.0486
19.3	20.0423
19.52	13.848
19.74	12.2969
19.96	27.9836
20.18	13.8864
20.4	21.5464
20.62	14.6963
20.84	8.76723
21.06	21.4639
21.28	23.2385
21.5	2.38881
21.72	27.5083
21.94	35.2099
22.16	3.45752
22.38	11.2791
22.6	24.8715
22.82	26.0243
23.04	24.5026
23.26	12.7843
23.48	18.3403
23.7	12.8932
23.92	22.6263
24.14	24.3561
24.36	14.0043
24.58	4.4346
24.8	30.9655
25.02	17.0682
25.24	17.9026
25.46	20.0383
25.68	3.74538
25.9	20.2321
26.12	0.078056
26.34	1.89797
26.56	29.9995
26.78	6.94722
27	14.2121
27.22	25.2942
27.44	7.25345
27.66	4.77948
27.88	8.30559
28.1	0.498558
28.32	3.86041
28.54	17.1166
28.76	18.5989
28.98	7.33203
29.2	19.7697
29.42	35.1967
29.64	108.178
29.86	40.0714
30.08	22.6352
30.3	15.2047
30.52	3.25967
30.74	25.0657
30.96	21.5841
31.18	12.2158
31.4	18.9543
31.62	17.9758
31.84	32.1437
32.06	8.4034
32.28	29.6013
32.5	11.9268
32.72	22.7588
32.94	38.0969
33.16	28.1719
33.38	15.5646
33.6	8.0568
33.82	1.89952
34.04	3.44077
34.26	20.9379
34.48	11.2992
34.7	2.82713
34.92	28.3493
35.14	13.2443
35.36	4.50261
35.58	24.527
35.8	25.8639
36.02	105.481
36.24	325.857
36.46	1386.59
36.68	567.716
36.9	168.888
37.12	58.6912
37.34	40.4969
37.56	21.1225
37.78	10.8211
38	7.74156
38.22	29.8299
38.44	14.7893
38.66	8.95583
38.88	17.0954
39.1	22.4018
39.32	26.8459
39.54	3.1543
39.76	44.6903
39.98	22.6788
40.2	20.4607
40.42	17.9031
40.64	10.6073
40.86	26.0025
41.08	22.9216
41.3	10.4416
41.52	40.4438
41.74	35.4739
41.96	78.9063
42.18	155.944
42.4	360.1
42.62	132.864
42.84	44.4608
43.06	28.7407
43.28	29.4836
43.5	10.9857
43.72	12.9148
43.94	15.0278
44.16	25.7822
44.38	11.912
44.6	7.11252
44.82	11.6071
45.04	15.9928
45.26	1.6766
45.48	13.3554
45.7	13.2677
45.92	21.0247
46.14	8.12129
46.36	23.4036
46.58	25.875
46.8	21.8351
47.02	3.10693
47.24	3.84853
47.46	6.20943
47.68	3.71932
47.9	32
48.12	13.5452
48.34	14.3601
48.56	19.2078
48.78	21.0318
49	5.93401
49.22	1.42165
49.44	21.2905
49.66	13.7032
49.88	14.9575
50.1	25.1182
50.32	11.7743
50.54	17.5042
50.76	13.6863
50.98	38.5798
51.2	35.2468
51.42	24.1361
51.64	17.8988
51.86	29.4589
52.08	0.91935
52.3	22.7787
52.52	19.7983
52.74	28.9025
52.96	16.0943
53.18	33.913
53.4	10.3573
53.62	1.98849
53.84	10.2437
54.06	20.4734
54.28	15.3407
54.5	34.9917
54.72	36.42
54.94	13.0348
55.16	31.8698
55.38	21.4951
55.6	23.9522
55.82	28.0144
56.04	18.1783
56.26	23.3345
56.48	9.74471
56.7	20.3942
56.92	1.33922
57.14	22.0299
57.36	24.0609
57.58	11.6777
57.8	35.7644
58.02	4.08599
58.24	10.953
58.46	28.3295
58.68	26.1999
58.9	7.85201
59.12	13.0607
59.34	5.31661
59.56	28.2854
59.78	19.7455
60	16.3851
60.22	6.48541
60.44	10.0416
60.66	24.1531
60.88	32.0022
61.1	102.764
61.32	166.566
61.54	190.285
61.76	81.0672
61.98	24.8822
62.2	49.3533
62.42	37.6069
62.64	26.2644
62.86	8.24738
63.08	1.10135
63.3	16.7647
63.52	8.04588
63.74	0.832466
63.96	42.9532
64.18	22.3249
64.4	16.612
64.62	20.8283
64.84	6.4515
65.06	19.7564
65.28	20.6491
65.5	19.6205
65.72	23.733
65.94	38.1053
66.16	1.86681
66.38	36.7154
66.6	4.42959
66.82	2.47893
67.04	10.1089
67.26	20.2067
67.48	14.5693
67.7	12.7543
67.92	34.7893
68.14	10.4958
68.36	31.7625
68.58	12.7592
68.8	7.7444
69.02	1.82279
69.24	13.2329
69.46	9.05655
69.68	21.8182
69.9	11.6402
70.12	15.1858
70.34	7.3464
70.56	22.4179
70.78	8.99023
71	7.0863
71.22	15.0645
71.44	2.08187
71.66	15.6357
71.88	17.4309
72.1	12.8608
72.32	20.9399
72.54	22.5859
72.76	9.78201
72.98	30.4905
73.2	60.2096
73.42	100.549
73.64	141.116
73.86	95.2516
74.08	35.3721
74.3	29.7761
74.52	3.30586
74.74	14.6406
74.96	18.4248
75.18	9.56544
75.4	12.0741
75.62	4.35413
75.84	25.5874
76.06	2.53063
76.28	10.1581
76.5	35.1297
76.72	31.3208
76.94	10.5455
77.16	54.6998
77.38	15.2739
77.6	33.697
77.82	43.5897
78.04	2.89636
78.26	25.2058
78.48	16.3545
78.7	4.11389
78.92	3.87433
79.14	43.0818
79.36	10.8669
79.58	21.1774
79.8	30.188
80.02	22.5335
80.24	5.78287
80.46	23.4616
80.68	2.02331
80.9	15.9824
81.12	3.82347
81.34	12.1673
81.56	25.3451
81.78	7.61207
82	11.5037
82.22	6.24114
82.44	20.0746
82.66	32.3342
82.88	1.1805
83.1	9.38208
83.32	17.7817
83.54	5.32654
83.76	4.90813
83.98	6.81884
84.2	15.5623
84.42	7.85934
84.64	29.9422
84.86	33.6777
85.08	18.5022
85.3	20.1863
85.52	0.145279
85.74	12.0745
85.96	16.0946
86.18	9.25464
86.4	28.723
86.62	25.554
86.84	8.38648
87.06	19.4378
87.28	24.8418
87.5	23.8544
87.72	17.7512
87.94	43.8662
88.16	15.2375
88.38	11.7708
88.6	17.2986
88.82	11.7281
89.04	13.8827
89.26	3.67899
89.48	16.0787
89.7	25.4215
89.92	27.2928
