Measurement: Powder, Xray Data XY Processed
Mineral: Curienite
Rruff sample: R050548
Ideal chemistry: Pb^2+^(U^6+^O_2_)_2_(V^5+^O_4_)_2_5H_2_O
Locality: Mounana mine, Franceville, Haut-Ogooué, Gabon
Source: University of Arizona Mineral Museum
Description: Groups of heavily striated orange bladed crystals
Diffraction sample description: Powder
Measured chemistry: (Pb_0.83_Ba_0.17_)_Σ=1_(U_1.00_O_2_)_2_(V_1.00_O_4_)_2_·5.1H_2_O
Cell parameters: a: 10.420(2) b: 8.4645(8) c: 16.374(3) alpha: 90 beta: 90 gamma: 90 volume: 1444.1(3) crystal system: orthorhombic
x	intensity
5	0
5.22	12.8337
5.44	16.9967
5.66	5.92711
5.88	1.50214
6.1	8.11669
6.32	5.80284
6.54	10.6549
6.76	10.1539
6.98	3.45207
7.2	1.26001
7.42	6.04217
7.64	5.45459
7.86	0.992046
8.08	5.0319
8.3	8.31224
8.52	0.193856
8.74	2.30999
8.96	4.96529
9.18	3.79473
9.4	9.51422
9.62	7.01304
9.84	5.72512
10.06	3.25436
10.28	1.68647
10.5	10.6231
10.72	58.6414
10.94	65.6063
11.16	6.91578
11.38	10.0285
11.6	8.21178
11.82	8.46028
12.04	11.6771
12.26	3.05161
12.48	5.37888
12.7	3.48055
12.92	7.68778
13.14	9.75416
13.36	3.66475
13.58	9.6847
13.8	9.01113
14.02	5.34868
14.24	6.61869
14.46	14.8783
14.68	3.33513
14.9	5.80931
15.12	4.32105
15.34	10.4601
15.56	4.69865
15.78	1.22513
16	1.3182
16.22	2.53926
16.44	3.16417
16.66	0.015881
16.88	11.9046
17.1	2.45605
17.32	51.3248
17.54	1.00187
17.76	9.16307
17.98	11.2181
18.2	8.56245
18.42	1.7408
18.64	9.90013
18.86	12.1212
19.08	2.45887
19.3	6.38048
19.52	6.35067
19.74	1.92439
19.96	3.54521
20.18	11.7596
20.4	3.04834
20.62	1.81177
20.84	14.6988
21.06	25.1455
21.28	17.8192
21.5	12.239
21.72	222.274
21.94	37.4056
22.16	7.71328
22.38	8.90838
22.6	3.20806
22.82	2.41549
23.04	0.043921
23.26	6.5819
23.48	6.08081
23.7	12.7229
23.92	6.01911
24.14	5.08697
24.36	1.99029
24.58	0.04521
24.8	0.746236
25.02	7.62209
25.24	8.97041
25.46	8.84924
25.68	2.77409
25.9	13.5399
26.12	2.74163
26.34	2.29761
26.56	0.629425
26.78	0.977919
27	8.35494
27.22	14.7454
27.44	11.0085
27.66	19.0182
27.88	10.7523
28.1	7.13791
28.32	3.70571
28.54	4.42205
28.76	7.28305
28.98	0.714658
29.2	4.35634
29.42	5.45272
29.64	7.8723
29.86	47.8705
30.08	9.21178
30.3	14.5429
30.52	13.2602
30.74	9.24972
30.96	9.0808
31.18	10.9154
31.4	9.64187
31.62	5.14404
31.84	0.384522
32.06	3.82855
32.28	1.75157
32.5	2.4746
32.72	8.71085
32.94	12.0496
33.16	12.9635
33.38	2.8787
33.6	1.08832
33.82	5.85665
34.04	8.01155
34.26	4.40321
34.48	1.56075
34.7	8.75988
34.92	10.1841
35.14	11.5274
35.36	7.61687
35.58	13.665
35.8	4.87003
36.02	3.96559
36.24	6.22659
36.46	2.34306
36.68	4.40864
36.9	4.51669
37.12	5.89559
37.34	4.8361
37.56	5.74719
37.78	11.6516
38	5.67615
38.22	1.26858
38.44	8.71407
38.66	9.8843
38.88	10.144
39.1	4.08713
39.32	5.02271
39.54	4.8866
39.76	6.72627
39.98	6.47798
40.2	7.4068
40.42	2.16492
40.64	2.4567
40.86	7.26642
41.08	6.78604
41.3	6.09523
41.52	9.63058
41.74	3.0773
41.96	1.64628
42.18	10.7354
42.4	4.13841
42.62	14.4881
42.84	12.3543
43.06	0.417127
43.28	10.7925
43.5	32.7049
43.72	12.8826
43.94	2.98867
44.16	21.5376
44.38	12.9134
44.6	5.36599
44.82	7.80875
45.04	4.4273
45.26	3.41257
45.48	8.78919
45.7	4.98946
45.92	1.00921
46.14	14.2476
46.36	5.16081
46.58	14.8479
46.8	13.605
47.02	8.52873
47.24	5.30601
47.46	12.0396
47.68	13.1524
47.9	13.2502
48.12	3.29027
48.34	7.38355
48.56	1.14858
48.78	8.49931
49	6.73244
49.22	6.94079
49.44	12.41
49.66	9.98426
49.88	6.48934
50.1	5.62204
50.32	10.8434
50.54	11.0866
50.76	6.44802
50.98	2.68987
51.2	2.58059
51.42	7.59024
51.64	5.51186
51.86	4.26247
52.08	0.841263
52.3	8.49858
52.52	3.36241
52.74	11.0012
52.96	7.12775
53.18	7.12793
53.4	7.22077
53.62	12.1629
53.84	0.20221
54.06	2.44506
54.28	1.53781
54.5	1.24872
54.72	1.84724
54.94	1.0055
55.16	5.1673
55.38	0.977673
55.6	7.85113
55.82	0.094178
56.04	5.08773
56.26	6.22033
56.48	8.1095
56.7	3.06486
56.92	4.9807
57.14	5.13496
57.36	11.1422
57.58	7.30214
57.8	6.3413
58.02	19.4542
58.24	9.55919
58.46	1.75717
58.68	0.922791
58.9	4.0858
59.12	0.243498
59.34	10.5962
59.56	3.6201
59.78	0.762611
60	0.442677
60.22	6.56355
60.44	3.62216
60.66	7.491
60.88	6.25977
61.1	2.04599
61.32	4.07244
61.54	3.24775
61.76	12.064
61.98	5.83692
62.2	1.66143
62.42	4.5264
62.64	5.46437
62.86	4.33789
63.08	9.23621
63.3	3.16225
63.52	7.47072
63.74	11.8216
63.96	6.80305
64.18	5.72189
64.4	6.95717
64.62	4.14369
64.84	2.27226
65.06	3.46094
65.28	5.57004
65.5	6.77376
65.72	7.92564
65.94	0.804225
66.16	2.72436
66.38	4.5487
66.6	2.94023
66.82	2.95079
67.04	7.95674
67.26	8.96026
67.48	1.89755
67.7	3.89859
67.92	1.86287
68.14	3.85219
68.36	2.95441
68.58	3.86557
68.8	4.70939
69.02	6.43464
69.24	3.37585
69.46	1.5316
69.68	7.68778
69.9	7.67162
70.12	3.54661
70.34	5.33092
70.56	6.05675
70.78	5.65398
71	1.42283
71.22	7.32021
71.44	9.1549
71.66	10.1159
71.88	7.82575
72.1	1.84728
72.32	0.059769
72.54	5.15984
72.76	11.3977
72.98	1.62823
73.2	0.835589
73.42	0.958673
73.64	3.28375
73.86	1.52093
74.08	1.69056
74.3	4.88992
74.52	4.51651
74.74	0.46307
74.96	1.73498
75.18	5.86037
75.4	4.96511
75.62	5.00144
75.84	2.04952
76.06	4.12301
76.28	11.1281
76.5	6.26185
76.72	1.28443
76.94	6.52336
77.16	4.55834
77.38	4.67903
77.6	5.72293
77.82	0.245813
78.04	4.95242
78.26	5.98475
78.48	0.096481
78.7	6.06726
78.92	4.00089
79.14	1.98231
79.36	11.9091
79.58	7.886
79.8	4.75745
80.02	0.379802
80.24	8.66092
80.46	0.685236
80.68	4.74818
80.9	7.75537
81.12	1.5883
81.34	1.26419
81.56	7.79492
81.78	2.72226
82	0.723674
82.22	8.79218
82.44	11.64
82.66	7.53198
82.88	5.3163
83.1	6.25307
83.32	3.22458
83.54	5.2164
83.76	2.10816
83.98	5.31571
84.2	4.32533
84.42	0.745151
84.64	5.23888
84.86	4.37069
85.08	1.32649
85.3	5.57732
85.52	6.57472
85.74	6.51459
85.96	2.57415
86.18	0.240364
86.4	3.46624
86.62	9.41554
86.84	4.73691
87.06	0.656428
87.28	2.58954
87.5	1.652
87.72	2.41003
87.94	8.40814
88.16	6.36421
88.38	3.41265
88.6	6.41608
88.82	1.23739
89.04	1.98008
89.26	1.9644
89.48	6.98182
89.7	3.42704
89.92	0.41016
