Measurement: Powder, Xray Data XY Processed
Mineral: Cylindrite
Rruff sample: R050175
Ideal chemistry: FePb_3_Sn_4_Sb_2_S_14_
Locality: Poop√≥ Province, Oruro Department, Bolivia
Source: Marcus Origlieri
Description: Gray tubular aggregates
Diffraction sample description: Powder
Measured chemistry: Pb_3.05_Sn_4.25_Fe_0.84_Sb_1.87_S_14.00_
x	intensity
5	0
5.22	5.55172
5.44	5.87716
5.66	9.53461
5.88	0.17603
6.1	8.96354
6.32	7.35531
6.54	2.6179
6.76	3.91442
6.98	6.04842
7.2	6.11189
7.42	6.46925
7.64	5.45218
7.86	0.310497
8.08	9.18323
8.3	0.364917
8.52	1.42804
8.74	2.59347
8.96	1.69247
9.18	5.7882
9.4	2.8653
9.62	8.73597
9.84	9.69038
10.06	3.9176
10.28	5.02272
10.5	4.91297
10.72	6.95315
10.94	2.18819
11.16	2.39852
11.38	2.58904
11.6	10.8425
11.82	6.8452
12.04	3.09805
12.26	3.21781
12.48	0.306634
12.7	0.074364
12.92	3.09476
13.14	2.19487
13.36	4.2428
13.58	3.24207
13.8	5.10769
14.02	3.85017
14.24	1.52031
14.46	3.26931
14.68	8.21502
14.9	3.95113
15.12	8.88872
15.34	12.9469
15.56	8.0904
15.78	7.06898
16	4.02482
16.22	3.00274
16.44	0.192845
16.66	6.46948
16.88	4.53265
17.1	1.61105
17.32	3.72453
17.54	11.7399
17.76	2.72645
17.98	3.69462
18.2	5.53772
18.42	3.68079
18.64	0.591447
18.86	0.4769
19.08	10.4
19.3	7.64052
19.52	1.55878
19.74	2.56912
19.96	6.47073
20.18	6.88954
20.4	4.90442
20.62	3.79133
20.84	5.36372
21.06	3.07968
21.28	4.55893
21.5	1.80044
21.72	6.81807
21.94	2.97839
22.16	5.09501
22.38	9.27998
22.6	10.0132
22.82	14.0363
23.04	101.372
23.26	5.65841
23.48	20.8879
23.7	7.02398
23.92	5.29627
24.14	6.51969
24.36	2.5414
24.58	0.400361
24.8	4.81961
25.02	2.97642
25.24	6.29073
25.46	9.84306
25.68	1.16651
25.9	1.52542
26.12	7.42823
26.34	11.2536
26.56	1.48901
26.78	7.59499
27	18.0373
27.22	16.5717
27.44	8.9689
27.66	5.28396
27.88	5.42793
28.1	3.15709
28.32	15.2196
28.54	6.11654
28.76	4.07141
28.98	5.15452
29.2	2.59496
29.42	5.91255
29.64	1.03099
29.86	0.923508
30.08	2.87733
30.3	2.75543
30.52	11.6
30.74	11.1174
30.96	28.2403
31.18	37.0554
31.4	6.55807
31.62	7.93586
31.84	2.7661
32.06	10.3749
32.28	8.14648
32.5	5.29706
32.72	9.45279
32.94	7.12307
33.16	3.44295
33.38	0.235853
33.6	5.34298
33.82	2.81208
34.04	10.6891
34.26	0.911163
34.48	1.57183
34.7	5.27761
34.92	0.903852
35.14	4.5453
35.36	7.49209
35.58	1.97275
35.8	4.68989
36.02	5.67994
36.24	4.29496
36.46	4.06715
36.68	6.69464
36.9	1.91536
37.12	7.72951
37.34	6.52496
37.56	4.45875
37.78	4.14076
38	1.26678
38.22	2.90523
38.44	0.702205
38.66	14.1645
38.88	13.5048
39.1	4.41258
39.32	2.61842
39.54	9.58502
39.76	10.6471
39.98	4.84362
40.2	17.8543
40.42	8.71867
40.64	3.96385
40.86	0.821481
41.08	2.72154
41.3	4.45075
41.52	9.53638
41.74	8.2522
41.96	3.72576
42.18	3.59841
42.4	8.72074
42.62	7.70396
42.84	5.57003
43.06	10.5081
43.28	4.1312
43.5	6.78581
43.72	4.6422
43.94	0.428563
44.16	3.16142
44.38	0.391845
44.6	7.73055
44.82	3.61592
45.04	1.49699
45.26	6.52259
45.48	10.585
45.7	0.412513
45.92	1.40311
46.14	8.37986
46.36	4.24744
46.58	3.00675
46.8	4.85436
47.02	6.41948
47.24	0.167254
47.46	8.84591
47.68	10.4833
47.9	1.00553
48.12	2.15676
48.34	0.783556
48.56	4.3592
48.78	0.331523
49	5.48482
49.22	3.13001
49.44	11.9497
49.66	9.72435
49.88	10.6151
50.1	11.6626
50.32	4.85073
50.54	2.76715
50.76	6.58801
50.98	5.52043
51.2	6.86466
51.42	1.06318
51.64	3.58602
51.86	6.02801
52.08	5.30435
52.3	6.71499
52.52	3.84241
52.74	5.45822
52.96	2.94195
53.18	1.29919
53.4	5.37005
53.62	0.423674
53.84	6.85487
54.06	1.02736
54.28	1.60298
54.5	15.9372
54.72	3.00379
54.94	4.91016
55.16	0.502288
55.38	6.53588
55.6	12.0858
55.82	0.216784
56.04	7.40467
56.26	2.01041
56.48	1.43765
56.7	10.09
56.92	11.789
57.14	1.21125
57.36	0.638902
57.58	8.85703
57.8	5.11592
58.02	3.31835
58.24	4.37343
58.46	6.20211
58.68	3.32208
58.9	6.03546
59.12	10.3085
59.34	4.19408
59.56	12.068
59.78	5.34383
60	2.81465
60.22	0.869989
60.44	8.7722
60.66	6.74355
60.88	0.02815
61.1	9.92952
61.32	0.556936
61.54	5.01714
61.76	3.97227
61.98	6.86112
62.2	5.22917
62.42	0.750174
62.64	8.97423
62.86	2.74773
63.08	2.39196
63.3	3.11834
63.52	5.87992
63.74	0.539401
63.96	2.92216
64.18	5.1435
64.4	8.43137
64.62	1.64387
64.84	0.845093
65.06	11.8283
65.28	1.02153
65.5	5.57501
65.72	0.860241
65.94	3.0029
66.16	5.91837
66.38	2.70926
66.6	4.54013
66.82	6.45258
67.04	1.57643
67.26	3.5415
67.48	6.60442
67.7	2.48351
67.92	4.02683
68.14	10.8928
68.36	4.74258
68.58	3.53051
68.8	3.38577
69.02	1.43629
69.24	5.33148
69.46	5.19373
69.68	5.13201
69.9	0.167717
70.12	4.4984
70.34	3.57524
70.56	2.5955
70.78	3.69247
71	4.02286
71.22	6.23728
71.44	2.1989
71.66	7.11574
71.88	1.90193
72.1	5.83529
72.32	2.03468
72.54	6.29483
72.76	6.29652
72.98	4.27128
73.2	6.20779
73.42	5.05705
73.64	0.497229
73.86	2.56172
74.08	8.70599
74.3	9.05737
74.52	1.21512
74.74	2.56527
74.96	4.73815
75.18	4.86368
75.4	7.80996
75.62	2.78809
75.84	7.66739
76.06	8.0604
76.28	1.75036
76.5	7.58362
76.72	14.3714
76.94	8.26341
77.16	0.149484
77.38	2.08958
77.6	2.17607
77.82	5.44115
78.04	4.6198
78.26	3.81658
78.48	1.17135
78.7	6.45575
78.92	1.6929
79.14	1.80338
79.36	9.91768
79.58	3.01086
79.8	0.767912
80.02	1.74206
80.24	0.075423
80.46	4.09222
80.68	7.08518
80.9	1.76185
81.12	5.47909
81.34	1.24051
81.56	4.36275
81.78	4.24861
82	6.33215
82.22	11.3008
82.44	7.4513
82.66	11.1512
82.88	1.07244
83.1	4.9758
83.32	10.0349
83.54	4.34381
83.76	7.67403
83.98	12.4886
84.2	2.4319
84.42	3.70231
84.64	3.76755
84.86	3.73827
85.08	8.65228
85.3	4.64362
85.52	2.61078
85.74	3.43497
85.96	11.1572
86.18	9.83151
86.4	0.264166
86.62	11.3692
86.84	2.5097
87.06	4.46162
87.28	6.03964
87.5	7.80047
87.72	4.65998
87.94	0.05151
88.16	1.97742
88.38	14.9625
88.6	3.97741
88.82	5.41348
89.04	4.12238
89.26	3.55696
89.48	4.79882
89.7	2.27538
89.92	5.90704
