Measurement: Powder, Xray Data XY Processed
Mineral: Danburite
Rruff sample: R040013
Ideal chemistry: CaB_2_Si_2_O_8_
Locality: Charcas, San Luis Potosi, Mexico
Source: Marcus Origlieri
Description: Colorless prismatic single crystal
Diffraction sample description: Powder
Measured chemistry: Ca_1.00_B_2.00_Si_2.00_O_8_
Cell parameters: a: 8.0432(5) b: 8.7644(5) c: 7.739(1) alpha: 90. beta: 90. gamma: 90. volume: 545.58(6) crystal system: orthorhombic
x	intensity
5	0
5.22	9.249
5.44	5.207
5.66	7.736
5.88	2.63
6.1	7.315
6.32	4.879
6.54	5.731
6.76	5.366
6.98	6.951
7.2	9.788
7.42	2.726
7.64	6.557
7.86	4.373
8.08	4.008
8.3	3.453
8.52	5.887
8.74	7.356
8.96	2.653
9.18	7.842
9.4	7.355
9.62	11.052
9.84	9.205
10.06	6.175
10.28	4.011
10.5	5.114
10.72	0.172
10.94	2.439
11.16	0.415
11.38	13.811
11.6	2.037
11.82	8.491
12.04	7.635
12.26	4.972
12.48	3.283
12.7	6.341
12.92	1.602
13.14	8.447
13.36	12.484
13.58	0.679
13.8	9.352
14.02	8.286
14.24	0.864
14.46	5.571
14.68	13.526
14.9	6.533
15.12	3.48
15.34	13.577
15.56	1.779
15.78	3.756
16	7.803
16.22	4.813
16.44	7.911
16.66	1.973
16.88	6.008
17.1	9.326
17.32	4.233
17.54	4.304
17.76	3.191
17.98	9.402
18.2	6.465
18.42	1.548
18.64	4.593
18.86	2.599
19.08	5.662
19.3	8.718
19.52	1.511
19.74	5.49
19.96	3.722
20.18	6.968
20.4	8.971
20.62	11.217
20.84	9.154
21.06	2.159
21.28	7.23
21.5	5.205
21.72	0.769
21.94	13.136
22.16	20.037
22.38	6.7
22.6	7.376
22.82	5.2
23.04	368.261
23.26	11.059
23.48	3.807
23.7	11.627
23.92	2.404
24.14	4.097
24.36	44.098
24.58	9.111
24.8	11.85
25.02	615.569
25.24	10.326
25.46	0.038
25.68	8.121
25.9	272.981
26.12	11.962
26.34	6.024
26.56	0.126
26.78	8.935
27	205.315
27.22	12.004
27.44	20.525
27.66	125.584
27.88	14.817
28.1	2.735
28.32	4.128
28.54	1.995
28.76	5.146
28.98	3.056
29.2	0.794
29.42	19.603
29.64	6.008
29.86	1.588
30.08	15.484
30.3	80.525
30.52	8.806
30.74	11.942
30.96	22.841
31.18	2.837
31.4	0.89
31.62	1.899
31.84	4.802
32.06	10.948
32.28	0.016
32.5	12.873
32.72	137.463
32.94	26.45
33.16	9.982
33.38	8.217
33.6	13.33
33.82	121.511
34.04	10.738
34.26	5.083
34.48	1.171
34.7	7.419
34.92	8.806
35.14	14.91
35.36	3.93
35.58	5.36
35.8	5.318
36.02	1.555
36.24	9.634
36.46	84.131
36.68	5.038
36.9	15.085
37.12	0.95
37.34	3.902
37.56	2.056
37.78	1.167
38	11.367
38.22	25.471
38.44	12.738
38.66	3.875
38.88	4.788
39.1	6.892
39.32	2.861
39.54	1.887
39.76	3.018
39.98	5.018
40.2	0.243
40.42	4.456
40.64	7.148
40.86	5.541
41.08	7.094
41.3	12.439
41.52	6.209
41.74	63.96
41.96	6.751
42.18	32.359
42.4	61.413
42.62	4.474
42.84	4.786
43.06	10.211
43.28	3.583
43.5	4.875
43.72	7.081
43.94	7.104
44.16	0.813
44.38	6.492
44.6	8.874
44.82	9.6
45.04	33.221
45.26	3.786
45.48	1.852
45.7	1.403
45.92	22.167
46.14	43.792
46.36	8.774
46.58	5.533
46.8	40.936
47.02	62.435
47.24	4.8
47.46	2.013
47.68	10.21
47.9	47.47
48.12	2.902
48.34	3.609
48.56	4.719
48.78	10.105
49	0.56
49.22	7.92
49.44	7.369
49.66	9.546
49.88	12.797
50.1	0.003
50.32	18.079
50.54	5.216
50.76	4.943
50.98	1.902
51.2	5.824
51.42	0.798
51.64	5.676
51.86	5.536
52.08	10.251
52.3	5.126
52.52	1.928
52.74	2.009
52.96	7.022
53.18	11.608
53.4	12.815
53.62	94.352
53.84	4.312
54.06	10.429
54.28	6.184
54.5	3.197
54.72	3.19
54.94	11.274
55.16	4.201
55.38	22.179
55.6	110.993
55.82	8.623
56.04	3.631
56.26	12.531
56.48	6.519
56.7	1.522
56.92	8.557
57.14	3.428
57.36	5.131
57.58	5.983
57.8	2.612
58.02	1.127
58.24	10.26
58.46	15.845
58.68	1.807
58.9	34.729
59.12	8.99
59.34	4.368
59.56	9.553
59.78	3.762
60	3.181
60.22	0.565
60.44	4.776
60.66	7.69
60.88	4.179
61.1	5.332
61.32	5.456
61.54	5.245
61.76	5.996
61.98	3.169
62.2	11.406
62.42	15.415
62.64	3.991
62.86	9.092
63.08	0.258
63.3	2.939
63.52	7.917
63.74	2.868
63.96	1.246
64.18	0.36
64.4	3.403
64.62	24.116
64.84	19.938
65.06	4.985
65.28	0.234
65.5	10.615
65.72	10.654
65.94	4.647
66.16	2.362
66.38	6.629
66.6	4.715
66.82	9.765
67.04	5.807
67.26	11.816
67.48	2.247
67.7	3.367
67.92	2.412
68.14	1.64
68.36	15.828
68.58	12.04
68.8	3.164
69.02	4.265
69.24	5.284
69.46	5.684
69.68	3.202
69.9	6.326
70.12	6.387
70.34	1.488
70.56	2.313
70.78	9.331
71	3.376
71.22	9.503
71.44	5.432
71.66	7.23
71.88	3.531
72.1	1.402
72.32	8.236
72.54	9.267
72.76	4.125
72.98	13.006
73.2	5.814
73.42	6.595
73.64	3.559
73.86	5.07
74.08	27.065
74.3	11.229
74.52	3.269
74.74	0.412
74.96	1.407
75.18	6.677
75.4	6.768
75.62	5.994
75.84	9.183
76.06	8.06
76.28	2.661
76.5	0.735
76.72	3.592
76.94	1.539
77.16	3.586
77.38	10.437
77.6	9.327
77.82	6.171
78.04	7.102
78.26	6.001
78.48	8.873
78.7	6.038
78.92	6.255
79.14	2.549
79.36	3.939
79.58	4.071
79.8	1.086
80.02	0.821
80.24	4.242
80.46	2.25
80.68	0.2
80.9	2.164
81.12	16.926
81.34	7.985
81.56	4.964
81.78	8.542
82	12.53
82.22	2.511
82.44	0.294
82.66	13.691
82.88	8.721
83.1	6.787
83.32	14.892
83.54	12.939
83.76	3.849
83.98	4.939
84.2	6.231
84.42	0.233
84.64	6.191
84.86	5.018
85.08	6.044
85.3	7.147
85.52	1.244
85.74	2.159
85.96	13.203
86.18	10.084
86.4	2.099
86.62	7.768
86.84	4.834
87.06	0.988
87.28	1.084
87.5	1.275
87.72	10.37
87.94	4.544
88.16	6.691
88.38	2.758
88.6	3.897
88.82	1.915
89.04	2.975
89.26	4.065
89.48	9.95
89.7	8.611
89.92	2.509
