Measurement: Powder, Xray Data XY Processed
Mineral: Datolite
Rruff sample: R050136
Ideal chemistry: CaB(SiO_4_)(OH)
Locality: Charcas, San Luis Potosi, Mexico
Source: Dave Bunk Minerals
Description: Pale green tabular crystals
Diffraction sample description: Powder
Measured chemistry: Ca_1.00_BSi_1.00_O_4_(OH) ; trace amounts of Fe; B and OH estimated by stoichiometry end charge balance
Cell parameters: a: 4.8345(3) b: 7.6111(6) c: 9.632(1) alpha: 90 beta: 90.156(8) gamma: 90 volume: 354.42(5) crystal system: monoclinic
x	intensity
5	0
5.22	7.74
5.44	8.782
5.66	11.158
5.88	12.419
6.1	1.909
6.32	13.681
6.54	13.277
6.76	10.758
6.98	16.422
7.2	6.994
7.42	12.784
7.64	0.754
7.86	1.872
8.08	0.707
8.3	4.668
8.52	2.052
8.74	2.471
8.96	5.625
9.18	9.72
9.4	10.916
9.62	8.121
9.84	8.03
10.06	9.134
10.28	6.376
10.5	3.487
10.72	3.706
10.94	4.913
11.16	9.065
11.38	6.195
11.6	0.187
11.82	3.083
12.04	15.178
12.26	4.436
12.48	10.63
12.7	5.485
12.92	6.512
13.14	12.551
13.36	3.408
13.58	9.289
13.8	2.303
14.02	3.446
14.24	6.627
14.46	2.531
14.68	7.508
14.9	27.602
15.12	1.917
15.34	2.205
15.56	6.422
15.78	9.393
16	1.339
16.22	12.854
16.44	4.828
16.66	4.857
16.88	2.837
17.1	4.785
17.32	4.544
17.54	6.257
17.76	7.273
17.98	3.202
18.2	3.298
18.42	43.486
18.64	7.637
18.86	4.778
19.08	3.868
19.3	6.16
19.52	3.308
19.74	4.707
19.96	2.802
20.18	2.988
20.4	8.928
20.62	7.917
20.84	2.496
21.06	1.475
21.28	2.548
21.5	5.699
21.72	5.762
21.94	9.57
22.16	3.519
22.38	1.405
22.6	2.236
22.82	6.137
23.04	6.984
23.26	6.157
23.48	19.082
23.7	153.867
23.92	9.797
24.14	8.217
24.36	11.881
24.58	3.67
24.8	0.485
25.02	3.327
25.24	7.157
25.46	12.119
25.68	13.313
25.9	9.263
26.12	45.477
26.34	17.022
26.56	7.992
26.78	6.146
27	10
27.22	5.707
27.44	8.339
27.66	1.968
27.88	2.475
28.1	1.286
28.32	8.298
28.54	41.674
28.76	195.432
28.98	20.169
29.2	5.055
29.42	14.362
29.64	2.819
29.86	62.149
30.08	35.403
30.3	4.245
30.52	4.75
30.74	10.924
30.96	7.287
31.18	36.085
31.4	191.553
31.62	21.81
31.84	1.086
32.06	8.334
32.28	2.75
32.5	2.145
32.72	5.519
32.94	2.942
33.16	3.257
33.38	7.356
33.6	0.057
33.82	5.851
34.04	6.43
34.26	2.089
34.48	3.757
34.7	13.347
34.92	5.065
35.14	20.047
35.36	47.056
35.58	73.818
35.8	25.78
36.02	2.93
36.24	6.883
36.46	1.076
36.68	4.341
36.9	8.559
37.12	3.775
37.34	26.209
37.56	9.783
37.78	8.768
38	7.738
38.22	6.486
38.44	4.582
38.66	1.322
38.88	9.102
39.1	9.578
39.32	23.977
39.54	9.433
39.76	0.444
39.98	12.403
40.2	99.661
40.42	16.317
40.64	1.884
40.86	1.763
41.08	23.546
41.3	93.449
41.52	10.231
41.74	12.039
41.96	38.496
42.18	11.831
42.4	7.372
42.62	3.791
42.84	11.518
43.06	7.791
43.28	22.023
43.5	19.143
43.72	25.687
43.94	7.365
44.16	10.134
44.38	6.08
44.6	9.099
44.82	4.14
45.04	4.37
45.26	16.152
45.48	50.807
45.7	23.171
45.92	6.25
46.14	4.681
46.36	4.551
46.58	1.407
46.8	2.503
47.02	7.359
47.24	3.161
47.46	6.784
47.68	6.414
47.9	21.674
48.12	6.468
48.34	6.227
48.56	60.789
48.78	51.872
49	11.006
49.22	0.325
49.44	5.062
49.66	1.9
49.88	0.727
50.1	7.755
50.32	7.053
50.54	8.85
50.76	3.81
50.98	2.62
51.2	2.323
51.42	5.96
51.64	43.121
51.86	8.678
52.08	5.743
52.3	6.581
52.52	10.255
52.74	16.128
52.96	5.392
53.18	18.055
53.4	14.054
53.62	30.645
53.84	8.954
54.06	9.157
54.28	1.179
54.5	0.854
54.72	9.912
54.94	4.573
55.16	12.189
55.38	16.799
55.6	12.777
55.82	24.751
56.04	58.213
56.26	4.009
56.48	0.016
56.7	5.063
56.92	5.614
57.14	23.345
57.36	14.103
57.58	16.842
57.8	8.401
58.02	0.055
58.24	1.339
58.46	2.708
58.68	6.086
58.9	4.574
59.12	7.705
59.34	10.379
59.56	7.968
59.78	6.533
60	6.326
60.22	8.853
60.44	5.761
60.66	12.631
60.88	8.46
61.1	4.536
61.32	3.353
61.54	4.356
61.76	6.387
61.98	15.432
62.2	8.631
62.42	4.563
62.64	8.832
62.86	9.04
63.08	3.087
63.3	0.411
63.52	1.232
63.74	1.643
63.96	0.306
64.18	2.431
64.4	2.479
64.62	5.318
64.84	9.267
65.06	9.056
65.28	13.793
65.5	7.864
65.72	3.863
65.94	12.759
66.16	14.798
66.38	6.004
66.6	8.346
66.82	2.401
67.04	9.503
67.26	3.603
67.48	5.709
67.7	5.998
67.92	0.018
68.14	2.829
68.36	3.893
68.58	8.141
68.8	3.244
69.02	13.981
69.24	10.227
69.46	9.48
69.68	3.709
69.9	11.978
70.12	4.835
70.34	1.872
70.56	2.933
70.78	6.952
71	7.745
71.22	5.554
71.44	13.364
71.66	3.329
71.88	5.173
72.1	5.463
72.32	6.432
72.54	6.524
72.76	10.681
72.98	0.874
73.2	6.096
73.42	7.336
73.64	4.409
73.86	7.402
74.08	2.342
74.3	0.229
74.52	2.92
74.74	4.7
74.96	6.477
75.18	5.317
75.4	7.936
75.62	1.598
75.84	1.363
76.06	10.181
76.28	0.433
76.5	9.386
76.72	1.366
76.94	6.154
77.16	9.102
77.38	1.18
77.6	11.231
77.82	6.694
78.04	11.708
78.26	5.707
78.48	7.791
78.7	5.862
78.92	1.003
79.14	0.914
79.36	1.803
79.58	4.697
79.8	2.45
80.02	4.217
80.24	8.795
80.46	11.667
80.68	1.647
80.9	2.578
81.12	5.283
81.34	11.345
81.56	8.606
81.78	9.858
82	8.26
82.22	9.929
82.44	3.358
82.66	0.358
82.88	3.97
83.1	1.991
83.32	4.241
83.54	4.137
83.76	2.071
83.98	1.957
84.2	8.831
84.42	5.641
84.64	1.07
84.86	7.014
85.08	11.084
85.3	7.218
85.52	11.231
85.74	6.158
85.96	1.219
86.18	2.345
86.4	2.512
86.62	6.734
86.84	5.904
87.06	2.254
87.28	6.316
87.5	4.292
87.72	3.445
87.94	9.506
88.16	2.544
88.38	2.525
88.6	8.493
88.82	2.523
89.04	5.465
89.26	9.206
89.48	7.665
89.7	8.638
89.92	5.606
