Measurement: Powder, Xray Data XY Processed
Mineral: Datolite
Rruff sample: R050033
Ideal chemistry: CaB(SiO_4_)(OH)
Locality: Westfield, Massachusetts, USA
Source: University of Arizona Mineral Museum
Description: Group of pale green single crystals
Diffraction sample description: Powder
Measured chemistry: Ca_1.00_B_1.00_Si_1.00_O_4_(OH) ; trace amounts of Al and Na; B measured and corrected according to stoichiometry;  OH estimated by stoichiometry end charge balance
Cell parameters: a: 4.8341(1) b: 7.6080(4) c: 9.6331(3) alpha: 90. beta: 90.143(2) gamma: 90. volume: 354.29(2) crystal system: monoclinic
x	intensity
5	0
5.22	13.61
5.44	10.519
5.66	0.124
5.88	7.308
6.1	11.245
6.32	7.033
6.54	8.72
6.76	9.202
6.98	3.83
7.2	6.472
7.42	5.059
7.64	6.798
7.86	7.45
8.08	3.514
8.3	6.827
8.52	0.112
8.74	10.551
8.96	12.535
9.18	4.667
9.4	0.946
9.62	5.721
9.84	4.879
10.06	8.894
10.28	4.454
10.5	4.702
10.72	4.91
10.94	5.072
11.16	2.143
11.38	2.203
11.6	7.195
11.82	0.082
12.04	4.714
12.26	5.669
12.48	7.657
12.7	3.401
12.92	4.445
13.14	1.5
13.36	7.633
13.58	7.794
13.8	14.884
14.02	0.975
14.24	7.115
14.46	7.231
14.68	4.347
14.9	39.563
15.12	1.386
15.34	2.487
15.56	3.7
15.78	6.848
16	7.934
16.22	4.049
16.44	3.289
16.66	6.288
16.88	5.282
17.1	4.321
17.32	2.22
17.54	1.646
17.76	4.565
17.98	8.341
18.2	8.241
18.42	54.42
18.64	9.651
18.86	6.605
19.08	2.811
19.3	14.029
19.52	8.196
19.74	6.286
19.96	3.449
20.18	3.266
20.4	0.412
20.62	9.308
20.84	6.237
21.06	0.044
21.28	5.974
21.5	7.119
21.72	4.023
21.94	2.029
22.16	3.944
22.38	0.694
22.6	1.352
22.82	4.446
23.04	6.338
23.26	3.445
23.48	12.553
23.7	224.665
23.92	12.375
24.14	6.093
24.36	3.247
24.58	0.345
24.8	3.313
25.02	4.252
25.24	2.209
25.46	3.284
25.68	2.39
25.9	15.267
26.12	68.075
26.34	15.929
26.56	2.875
26.78	2.757
27	5.644
27.22	0.422
27.44	0.187
27.66	5.927
27.88	0.458
28.1	0.063
28.32	8.993
28.54	41.64
28.76	193.38
28.98	12.138
29.2	9.839
29.42	1.844
29.64	6.13
29.86	96.18
30.08	26.21
30.3	13.31
30.52	0.722
30.74	1.14
30.96	9.307
31.18	23.507
31.4	424.011
31.62	24.397
31.84	7.629
32.06	3.65
32.28	1.163
32.5	0.318
32.72	2.019
32.94	5.374
33.16	5.779
33.38	7.146
33.6	2.301
33.82	4.44
34.04	0.274
34.26	5.183
34.48	3.868
34.7	5.699
34.92	0.369
35.14	3.149
35.36	29.086
35.58	82.784
35.8	19.59
36.02	4.469
36.24	1.35
36.46	2.351
36.68	10.567
36.9	1.886
37.12	2.541
37.34	52.936
37.56	8.275
37.78	7.398
38	5.483
38.22	1.726
38.44	0.778
38.66	2.048
38.88	4.594
39.1	8.989
39.32	20.257
39.54	1.518
39.76	3.766
39.98	12.89
40.2	148.395
40.42	20.006
40.64	0.133
40.86	1.35
41.08	13.725
41.3	147.249
41.52	14.984
41.74	26.872
41.96	51.276
42.18	4.985
42.4	3.465
42.62	5.879
42.84	3.257
43.06	2.527
43.28	8.612
43.5	7.42
43.72	22.385
43.94	5.015
44.16	2.464
44.38	17.055
44.6	10.798
44.82	3.79
45.04	4.971
45.26	9.285
45.48	71.412
45.7	16.901
45.92	4.301
46.14	6.329
46.36	6.459
46.58	4.56
46.8	1.475
47.02	3.33
47.24	2.114
47.46	2.574
47.68	5.086
47.9	7.656
48.12	2.36
48.34	6.042
48.56	67.833
48.78	74.751
49	11.83
49.22	3.138
49.44	3.788
49.66	8.329
49.88	0.751
50.1	4.317
50.32	2.602
50.54	1.6
50.76	5.579
50.98	0.063
51.2	8.015
51.42	8.832
51.64	53.707
51.86	9.097
52.08	2.803
52.3	6.449
52.52	6.169
52.74	11.101
52.96	1.396
53.18	20.701
53.4	18.529
53.62	17.043
53.84	10.145
54.06	7.028
54.28	2.081
54.5	1.841
54.72	1.738
54.94	0.553
55.16	11.344
55.38	38.811
55.6	12.77
55.82	45.427
56.04	40.938
56.26	2.938
56.48	4.114
56.7	9.504
56.92	8.057
57.14	29.591
57.36	6.016
57.58	2.507
57.8	1.829
58.02	1.057
58.24	0.652
58.46	2.56
58.68	3.789
58.9	2.138
59.12	4.031
59.34	12.863
59.56	1.658
59.78	6.526
60	1.695
60.22	0.897
60.44	5.076
60.66	18.943
60.88	29.782
61.1	3.526
61.32	6.553
61.54	1.382
61.76	6.094
61.98	10.068
62.2	2.139
62.42	2.119
62.64	7.026
62.86	23.095
63.08	6.12
63.3	4.238
63.52	6.71
63.74	5.304
63.96	2.308
64.18	6.321
64.4	2.294
64.62	1.186
64.84	4.165
65.06	4.03
65.28	6.082
65.5	7.344
65.72	2.338
65.94	19.348
66.16	7.689
66.38	0.099
66.6	0.179
66.82	6.494
67.04	2.822
67.26	1.946
67.48	3.176
67.7	8.211
67.92	3.999
68.14	1.988
68.36	3.928
68.58	1.941
68.8	7.925
69.02	13.836
69.24	16.747
69.46	6.843
69.68	9.97
69.9	5.911
70.12	2.774
70.34	1.702
70.56	0.626
70.78	2.371
71	2.356
71.22	18.265
71.44	15.089
71.66	4.906
71.88	5.01
72.1	2.923
72.32	4.082
72.54	11.189
72.76	4.395
72.98	1.771
73.2	2.991
73.42	4.181
73.64	9.289
73.86	0.266
74.08	3.102
74.3	1.804
74.52	1.491
74.74	4.181
74.96	9.938
75.18	14.55
75.4	0.135
75.62	3.786
75.84	7.734
76.06	0.801
76.28	9.918
76.5	8.993
76.72	10.107
76.94	2.267
77.16	2.424
77.38	2.629
77.6	14.84
77.82	14.421
78.04	9.479
78.26	2.455
78.48	0.602
78.7	6.285
78.92	6.478
79.14	1.272
79.36	3.016
79.58	6.728
79.8	2.384
80.02	1.769
80.24	7.201
80.46	11.942
80.68	8.541
80.9	2.443
81.12	9.421
81.34	14.256
81.56	2.572
81.78	9.078
82	10.745
82.22	5.112
82.44	3.67
82.66	2.134
82.88	0.514
83.1	0.042
83.32	7.16
83.54	3.207
83.76	5.083
83.98	3.927
84.2	2.682
84.42	5.38
84.64	4.318
84.86	10.303
85.08	17.215
85.3	8.343
85.52	3.241
85.74	6.293
85.96	1.618
86.18	2.466
86.4	5.575
86.62	5.795
86.84	4.055
87.06	5.157
87.28	3.074
87.5	5.327
87.72	3.194
87.94	11.322
88.16	4.28
88.38	0.164
88.6	2.991
88.82	2.86
89.04	6.54
89.26	12.176
89.48	6.722
89.7	5.856
89.92	4.21
