Measurement: Powder, Xray Data XY Processed
Mineral: Davyne
Rruff sample: R060305
Ideal chemistry: (Na,K)_6_Ca_2_(Si_6_Al_6_)O_24_Cl_3_(S^6+^O_4_)_0.5_
Locality: Bellerberg, Ettringen, Laacher See, Germany
Source: Michael Scott
Description: Colorless hexagonal prisms
Diffraction sample description: Single crystal, powder profile is calculated
Cell parameters: a: 12.738(1) b: 12.738(1) c: 5.3397(4) alpha: 90 beta: 90 gamma: 120 volume: 750.34(4) crystal system: hexagonal
x	intensity
5	0
5.22	0
5.44	0
5.66	0
5.88	0
6.1	0
6.32	0
6.54	0
6.76	0
6.98	0
7.2	0
7.42	0
7.64	0
7.86	0
8.08	1.274
8.3	0
8.52	0
8.74	0
8.96	0
9.18	0
9.4	0
9.62	0
9.84	0
10.06	0
10.28	0
10.5	0
10.72	0
10.94	0
11.16	0
11.38	0
11.6	0
11.82	0
12.04	0
12.26	0
12.48	0
12.7	0
12.92	0
13.14	0
13.36	0
13.58	0
13.8	0.03
14.02	0.015
14.24	0
14.46	0
14.68	0
14.9	0
15.12	0
15.34	0
15.56	0
15.78	0
16	0.001
16.22	0
16.44	0
16.66	0
16.88	0
17.1	0
17.32	0
17.54	0
17.76	0
17.98	0
18.2	0
18.42	61.386
18.64	0
18.86	0
19.08	0
19.3	0
19.52	0
19.74	0
19.96	0
20.18	0
20.4	0
20.62	0
20.84	0
21.06	0
21.28	3.004
21.5	0
21.72	1.065
21.94	0
22.16	0
22.38	0
22.6	0
22.82	0
23.04	0
23.26	0.125
23.48	0
23.7	0
23.92	0
24.14	30.752
24.36	0.018
24.58	0
24.8	0
25.02	0
25.24	0
25.46	0
25.68	0
25.9	0
26.12	0
26.34	0
26.56	0
26.78	0
27	0.089
27.22	18.173
27.44	0
27.66	0
27.88	0.001
28.1	0.352
28.32	0
28.54	0
28.76	0
28.98	0
29.2	4.315
29.42	2.261
29.64	0.026
29.86	0
30.08	0
30.3	0
30.52	0
30.74	0
30.96	0
31.18	0
31.4	0
31.62	0
31.84	0
32.06	0
32.28	0
32.5	10.511
32.72	0.125
32.94	0
33.16	0
33.38	0
33.6	19.257
33.82	13.067
34.04	0
34.26	0
34.48	0.939
34.7	0.12
34.92	0
35.14	0
35.36	0.011
35.58	0.042
35.8	0
36.02	0
36.24	0
36.46	2.901
36.68	16.467
36.9	0
37.12	0
37.34	5.135
37.56	0.009
37.78	0
38	0
38.22	0
38.44	0
38.66	0
38.88	0
39.1	0
39.32	0.393
39.54	0.049
39.76	0
39.98	0
40.2	0.006
40.42	0
40.64	0
40.86	1.294
41.08	0.53
41.3	0.004
41.52	0
41.74	0.83
41.96	0.055
42.18	0
42.4	0.001
42.62	9.655
42.84	0
43.06	0
43.28	0.006
43.5	0.1
43.72	0
43.94	0
44.16	0.558
44.38	2.884
44.6	0.005
44.82	0
45.04	4.782
45.26	0.008
45.48	0
45.7	0.014
45.92	0.031
46.14	0.006
46.36	0
46.58	0
46.8	0.208
47.02	0
47.24	0.041
47.46	5.482
47.68	0
47.9	0
48.12	0
48.34	0
48.56	0
48.78	0
49	3.203
49.22	0.045
49.44	0.01
49.66	0.532
49.88	0
50.1	0
50.32	0.668
50.54	0
50.76	0
50.98	3.237
51.2	8.522
51.42	0
51.64	0.203
51.86	0.702
52.08	0.713
52.3	0
52.52	0.024
52.74	0.273
52.96	0
53.18	0.01
53.4	1.714
53.62	0.002
53.84	0.337
54.06	0.171
54.28	0.056
54.5	0.091
54.72	0.361
54.94	0.003
55.16	0.132
55.38	0.727
55.6	0
55.82	0.007
56.04	0.161
56.26	1.521
56.48	0
56.7	0
56.92	0
57.14	0
57.36	2.001
57.58	0.691
57.8	0.996
58.02	3.103
58.24	0
58.46	0.239
58.68	0.636
58.9	0
59.12	0
59.34	0.002
59.56	0.031
59.78	0
60	0.132
60.22	1.116
60.44	0.002
60.66	0.048
60.88	0.004
61.1	0.878
61.32	4.96
61.54	0.137
61.76	1.379
61.98	4.963
62.2	2.361
62.42	0
62.64	0
62.86	0
63.08	0.232
63.3	0.345
63.52	0.022
63.74	0.267
63.96	0.021
64.18	0.001
64.4	0
64.62	0
64.84	0
65.06	0.034
65.28	0.071
65.5	0.041
65.72	0.032
65.94	0
66.16	0.02
66.38	0.003
66.6	0
66.82	0
67.04	0
67.26	0.003
67.48	0.004
67.7	0.001
67.92	1.488
68.14	0.594
68.36	0
68.58	10.694
68.8	3.372
69.02	0.003
69.24	0.194
69.46	0.027
69.68	0.028
69.9	0.062
70.12	0.013
70.34	0.017
70.56	1.233
70.78	0.182
71	0.111
71.22	0.184
71.44	0.023
71.66	0
71.88	0
72.1	0.001
72.32	0.22
72.54	0.059
72.76	0.004
72.98	0.003
73.2	0.106
73.42	0.071
73.64	0
73.86	6.753
74.08	3.72
74.3	0.053
74.52	0.02
74.74	0.297
74.96	0.163
75.18	0.021
75.4	0
75.62	0.042
75.84	0.22
76.06	0.109
76.28	0.023
76.5	0.013
76.72	0.069
76.94	0.036
77.16	0.001
77.38	2.321
77.6	1.396
77.82	1.006
78.04	0.895
78.26	0.252
78.48	0
78.7	0
78.92	0
79.14	0.255
79.36	0.092
79.58	0.26
79.8	0.555
80.02	0.403
80.24	0.001
80.46	0
80.68	0
80.9	0.001
81.12	0
81.34	0.008
81.56	1.146
81.78	1.015
82	0.087
82.22	0.037
82.44	0.004
82.66	0.071
82.88	0.147
83.1	0.048
83.32	0.067
83.54	0.184
83.76	0.059
83.98	0
84.2	0.01
84.42	0.014
84.64	0.469
84.86	0.141
85.08	0.04
85.3	0
85.52	0
85.74	0
85.96	1.62
86.18	0.789
86.4	0.08
86.62	0.037
86.84	0.04
87.06	0.005
87.28	0.002
87.5	0.534
87.72	0.125
87.94	0
88.16	0.176
88.38	0.019
88.6	0.015
88.82	0.005
89.04	0
89.26	0.225
89.48	0.029
89.7	0.004
89.92	3.304
