Measurement: Powder, Xray Data XY Processed
Mineral: Dawsonite
Rruff sample: R050641
Ideal chemistry: NaAlCO_3_(OH)_2_
Locality: Francon Quarry, Montréal, Québec, Canada
Source: University of Arizona Mineral Museum
Description: Colorless acicular crystals
Diffraction sample description: Powder
Measured chemistry: Na_1.00_Al_1.00_(CO_3_)(OH)_2_ ; trace amounts of Ti ; H_2_O assumed ideal 12.5%; CO_2_ by difference
Cell parameters: a: 6.7637(5) b: 10.4212(5) c: 5.5816(4) alpha: 90. beta: 90. gamma: 90. volume: 393.43(3) crystal system: orthorhombic
x	intensity
5	0
5.22	14.161
5.44	5.748
5.66	10.727
5.88	9.799
6.1	3.011
6.32	18.965
6.54	11.219
6.76	12.457
6.98	1.219
7.2	9.824
7.42	23.521
7.64	2.118
7.86	3.753
8.08	1.57
8.3	1.902
8.52	6.202
8.74	7.615
8.96	6.913
9.18	4.879
9.4	6.944
9.62	12.191
9.84	6.22
10.06	14.259
10.28	9.083
10.5	4.877
10.72	11.872
10.94	1.662
11.16	1.503
11.38	7.493
11.6	1.332
11.82	17.996
12.04	6.751
12.26	3.567
12.48	0.364
12.7	9.781
12.92	12.904
13.14	8.521
13.36	5.002
13.58	11.967
13.8	2.512
14.02	11.432
14.24	11.753
14.46	6.958
14.68	3.077
14.9	10.786
15.12	18.973
15.34	26.18
15.56	250.051
15.78	201.794
16	37.202
16.22	13.027
16.44	7.594
16.66	0.159
16.88	7.091
17.1	1.575
17.32	4.317
17.54	3.534
17.76	8.688
17.98	1.398
18.2	18.064
18.42	5.648
18.64	7.259
18.86	0.833
19.08	8.252
19.3	3.636
19.52	14.135
19.74	8.098
19.96	2.3
20.18	2.811
20.4	8.895
20.62	7.814
20.84	21.962
21.06	7.025
21.28	9.148
21.5	0.338
21.72	7.594
21.94	5.493
22.16	6.563
22.38	14.878
22.6	8.121
22.82	10.975
23.04	8.778
23.26	1.733
23.48	10.634
23.7	16.602
23.92	7.492
24.14	7.466
24.36	8.187
24.58	7.823
24.8	2.414
25.02	3.316
25.24	3.993
25.46	7.402
25.68	4.808
25.9	9.111
26.12	8.301
26.34	58.732
26.56	19.561
26.78	54.166
27	20.7
27.22	7.096
27.44	4.109
27.66	4.905
27.88	8.554
28.1	8.244
28.32	10.978
28.54	1.332
28.76	4.271
28.98	50.02
29.2	16.19
29.42	18.949
29.64	24.213
29.86	4.364
30.08	14.242
30.3	5.429
30.52	12.128
30.74	8.7
30.96	2.22
31.18	0.02
31.4	12.615
31.62	29.722
31.84	19.902
32.06	129.274
32.28	145.443
32.5	8.231
32.72	3.44
32.94	3.816
33.16	13.222
33.38	8.677
33.6	11.092
33.82	6.904
34.04	14.098
34.26	9.214
34.48	124.54
34.7	13.537
34.92	13.144
35.14	11.197
35.36	6.619
35.58	5.937
35.8	28.811
36.02	25.4
36.24	1.817
36.46	9.24
36.68	10.778
36.9	6.236
37.12	12.591
37.34	17.187
37.56	0.776
37.78	5.692
38	17.748
38.22	11.369
38.44	6.134
38.66	6.576
38.88	8.032
39.1	3.852
39.32	1.305
39.54	7.94
39.76	16.305
39.98	8.753
40.2	1.356
40.42	17.889
40.64	32.546
40.86	5.346
41.08	7.893
41.3	1.353
41.52	6.538
41.74	11.019
41.96	59.137
42.18	31.21
42.4	9.412
42.62	9.703
42.84	0.885
43.06	4.314
43.28	18.685
43.5	5.859
43.72	23.074
43.94	12.905
44.16	9.902
44.38	4.046
44.6	1.816
44.82	8.765
45.04	11.047
45.26	14.013
45.48	31.756
45.7	63.201
45.92	14.118
46.14	7.338
46.36	15.71
46.58	20.648
46.8	12.917
47.02	2.694
47.24	20.797
47.46	13.769
47.68	3.024
47.9	10.47
48.12	5.061
48.34	6.896
48.56	13.984
48.78	6.289
49	9.563
49.22	13.817
49.44	9.004
49.66	5.309
49.88	5.796
50.1	8.991
50.32	13.066
50.54	10.895
50.76	6.449
50.98	16.359
51.2	11.529
51.42	0.392
51.64	3.2
51.86	10.801
52.08	1.234
52.3	3.714
52.52	1.219
52.74	11.683
52.96	119.298
53.18	17.022
53.4	9.806
53.62	9.643
53.84	0.707
54.06	20.75
54.28	76.747
54.5	1.731
54.72	7.626
54.94	6.687
55.16	4.153
55.38	74.48
55.6	16.701
55.82	7.977
56.04	0.073
56.26	2.028
56.48	0.636
56.7	3.213
56.92	9.943
57.14	8.212
57.36	23.75
57.58	10.76
57.8	6.915
58.02	6.232
58.24	3.457
58.46	9.649
58.68	12.671
58.9	14.669
59.12	15.333
59.34	0.012
59.56	10.024
59.78	11.674
60	29.668
60.22	3.123
60.44	12.33
60.66	16.649
60.88	3.813
61.1	6.014
61.32	1.241
61.54	11.241
61.76	9.7
61.98	6.701
62.2	6.627
62.42	8.349
62.64	6.025
62.86	7.801
63.08	11.777
63.3	5.683
63.52	12.773
63.74	8.902
63.96	4.744
64.18	8.95
64.4	8.158
64.62	7.297
64.84	11.39
65.06	5.597
65.28	9.909
65.5	0.095
65.72	3.008
65.94	17.829
66.16	0.405
66.38	3.115
66.6	8.995
66.82	3.814
67.04	14.716
67.26	16.968
67.48	2.713
67.7	9.959
67.92	0.055
68.14	8.019
68.36	4.108
68.58	5.073
68.8	2.067
69.02	5.95
69.24	6.834
69.46	18.74
69.68	5.374
69.9	1.377
70.12	28.526
70.34	31.796
70.56	8.951
70.78	0.255
71	3.66
71.22	5.906
71.44	3.188
71.66	5.607
71.88	11.903
72.1	8.253
72.32	5.288
72.54	11.34
72.76	6.107
72.98	1.223
73.2	0.789
73.42	10.536
73.64	7.451
73.86	9.6
74.08	19.143
74.3	0.874
74.52	10.086
74.74	1.235
74.96	3.475
75.18	9.839
75.4	7.922
75.62	7.142
75.84	8.226
76.06	8.531
76.28	17.643
76.5	9.03
76.72	2.984
76.94	8.041
77.16	9.647
77.38	16.634
77.6	9.602
77.82	1.61
78.04	4.446
78.26	7.548
78.48	1.351
78.7	8.123
78.92	7.123
79.14	7.332
79.36	9.32
79.58	10.632
79.8	15.823
80.02	4.646
80.24	2.654
80.46	6.681
80.68	5.604
80.9	4.684
81.12	13.964
81.34	7.186
81.56	5.575
81.78	8.781
82	7.69
82.22	4.657
82.44	8.756
82.66	4.756
82.88	5.63
83.1	1.444
83.32	3.728
83.54	14.319
83.76	4.868
83.98	2.202
84.2	2.851
84.42	0.516
84.64	6.215
84.86	5.204
85.08	4.145
85.3	6.192
85.52	10.279
85.74	10.976
85.96	3.565
86.18	7.729
86.4	0.937
86.62	3.183
86.84	6.345
87.06	10.675
87.28	1.411
87.5	7.779
87.72	13.834
87.94	7.916
88.16	6.945
88.38	10.92
88.6	0.974
88.82	2.99
89.04	20.303
89.26	16.309
89.48	6.86
89.7	3.399
89.92	5.87
