Measurement: Powder, Xray Data XY Processed
Mineral: Delafossite
Rruff sample: R050403
Ideal chemistry: Cu^1+^Fe^3+^O_2_
Locality: Cole Shaft, Bisbee, Cochise County, Arizona, USA
Source: Marcus Origlieri
Description: Black bladed rosettes
Diffraction sample description: Powder
Measured chemistry: Cu^1+^(Fe^3+^_0.94_Al_0.06_)O_2_
Cell parameters: a: 5.979(1) b: 5.979(1) c: 5.979(1) alpha: 29.336(5) beta: 29.336(5) gamma: 29.336(5) volume: 45.4(1) crystal system: rhombohedral
x	intensity
5	0
5.22	16.3753
5.44	7.50511
5.66	25.7114
5.88	21.1924
6.1	20.1891
6.32	11.8041
6.54	11.0971
6.76	10.7609
6.98	24.036
7.2	9.61974
7.42	26.8681
7.64	15.9494
7.86	2.19649
8.08	8.09357
8.3	9.90784
8.52	1.47591
8.74	0.951225
8.96	14.5809
9.18	18.3877
9.4	34.2617
9.62	7.38194
9.84	21.656
10.06	17.7351
10.28	35.6901
10.5	2.79487
10.72	12.4516
10.94	20.3544
11.16	14.1383
11.38	28.4668
11.6	39.5168
11.82	31.9261
12.04	7.31114
12.26	31.9188
12.48	23.2207
12.7	30.2526
12.92	11.8875
13.14	3.84615
13.36	13.3386
13.58	13.2025
13.8	0.24353
14.02	37.8073
14.24	7.75763
14.46	30.5661
14.68	27.1205
14.9	14.8238
15.12	6.97604
15.34	21.1567
15.56	50.9128
15.78	7.67985
16	27.7668
16.22	8.98988
16.44	11.6663
16.66	13.4855
16.88	8.34122
17.1	10.5582
17.32	16.4885
17.54	31.3381
17.76	29.9715
17.98	28.9789
18.2	31.6782
18.42	36.9968
18.64	15.2245
18.86	14.7194
19.08	19.4291
19.3	25.5458
19.52	3.01694
19.74	21.7836
19.96	9.81795
20.18	31.7602
20.4	13.0685
20.62	42.9267
20.84	1.05273
21.06	6.28909
21.28	22.488
21.5	7.00811
21.72	45.5176
21.94	17.1908
22.16	24.3299
22.38	30.4258
22.6	5.71574
22.82	24.1611
23.04	29.3007
23.26	11.9454
23.48	17.6078
23.7	26.7289
23.92	35.171
24.14	48.9038
24.36	7.73273
24.58	11.4865
24.8	32.8807
25.02	16.4098
25.24	16.3795
25.46	31.9601
25.68	42.8478
25.9	16.2143
26.12	20.3094
26.34	1.01286
26.56	23.105
26.78	21.4437
27	33.2899
27.22	45.4145
27.44	23.2871
27.66	12.4737
27.88	21.4377
28.1	8.79691
28.32	34.5064
28.54	4.96709
28.76	22.8686
28.98	27.8147
29.2	15.0945
29.42	1.27974
29.64	51.0279
29.86	49.7607
30.08	17.7995
30.3	25.0394
30.52	12.1371
30.74	10.4637
30.96	15.5688
31.18	26.206
31.4	76.9665
31.62	5.27856
31.84	1.38161
32.06	24.5176
32.28	9.54834
32.5	11.255
32.72	25.9623
32.94	34.0555
33.16	46.491
33.38	31.4102
33.6	13.0826
33.82	22.2103
34.04	25.765
34.26	3.50786
34.48	13.6465
34.7	30.976
34.92	9.57396
35.14	30.2501
35.36	22.868
35.58	76.3814
35.8	236.1
36.02	71.843
36.24	28.8146
36.46	40.6401
36.68	27.7584
36.9	3.90094
37.12	30.4762
37.34	35.2537
37.56	16.4632
37.78	28.1048
38	30.6675
38.22	27.7286
38.44	15.5995
38.66	1.6899
38.88	20.7081
39.1	31.013
39.32	4.44525
39.54	10.0054
39.76	3.76459
39.98	46.9268
40.2	66.3139
40.42	54.0385
40.64	11.3353
40.86	3.99339
41.08	32.0765
41.3	27.3238
41.52	19.5283
41.74	4.84247
41.96	3.49817
42.18	3.47298
42.4	45.409
42.62	11.0547
42.84	22.4758
43.06	10.0705
43.28	36.9914
43.5	12.3982
43.72	17.906
43.94	9.55614
44.16	1.37546
44.38	29.1911
44.6	24.1014
44.82	26.5334
45.04	23.8553
45.26	40.4421
45.48	38.0782
45.7	27.0517
45.92	1.92227
46.14	17.7914
46.36	7.45117
46.58	9.37477
46.8	28.1253
47.02	10.1139
47.24	16.7861
47.46	12.3494
47.68	30.3644
47.9	1.88651
48.12	6.06661
48.34	40.7143
48.56	41.9119
48.78	10.8552
49	24.2699
49.22	36.8021
49.44	20.2396
49.66	18.0975
49.88	28.0391
50.1	9.30177
50.32	0.814957
50.54	14.9387
50.76	33.656
50.98	25.389
51.2	6.13011
51.42	1.2345
51.64	14.7047
51.86	21.8877
52.08	2.29199
52.3	40.5015
52.52	29.466
52.74	22.9826
52.96	22.6348
53.18	4.06033
53.4	17.0878
53.62	16.7488
53.84	1.15263
54.06	17.6628
54.28	15.3156
54.5	16.8514
54.72	33.8516
54.94	14.8044
55.16	30.2281
55.38	74.7093
55.6	19.8765
55.82	12.1326
56.04	19.0809
56.26	26.1538
56.48	4.48425
56.7	20.8637
56.92	10.2094
57.14	22.7071
57.36	7.05115
57.58	17.1734
57.8	0.566696
58.02	3.85417
58.24	4.99338
58.46	15.9593
58.68	13.9664
58.9	7.42735
59.12	22.7683
59.34	11.1541
59.56	16.9309
59.78	28.3037
60	36.7329
60.22	39.7913
60.44	32.7946
60.66	25.6212
60.88	17.4813
61.1	52.3804
61.32	46.222
61.54	21.4903
61.76	10.9615
61.98	32.0435
62.2	31.5845
62.42	36.178
62.64	12.7359
62.86	33.6242
63.08	0.924423
63.3	31.3201
63.52	19.9667
63.74	28.7216
63.96	25.9323
64.18	31.0751
64.4	23.6637
64.62	33.2513
64.84	27.1758
65.06	56.8435
65.28	11.0205
65.5	19.5243
65.72	11.6118
65.94	9.11314
66.16	36.8971
66.38	23.0717
66.6	15.9091
66.82	4.88632
67.04	47.56
67.26	1.94145
67.48	2.5054
67.7	20.2393
67.92	48.2675
68.14	27.6936
68.36	28.0288
68.58	15.8134
68.8	8.32294
69.02	42.6797
69.24	16.0524
69.46	31.674
69.68	28.215
69.9	30.5629
70.12	30.4263
70.34	8.40373
70.56	28.2454
70.78	16.6732
71	11.5071
71.22	11.5806
71.44	33.058
71.66	14.0737
71.88	8.52093
72.1	8.89133
72.32	27.0432
72.54	4.77844
72.76	11.3511
72.98	44.6708
73.2	26.7349
73.42	22.3204
73.64	14.4984
73.86	25.6072
74.08	14.003
74.3	7.45425
74.52	29.4547
74.74	11.6983
74.96	26.8098
75.18	25.4998
75.4	1.14581
75.62	0.616104
75.84	31.549
76.06	12.316
76.28	15.6764
76.5	24.8248
76.72	26.619
76.94	7.23444
77.16	9.12161
77.38	36.1746
77.6	28.2308
77.82	11.9658
78.04	0.698166
78.26	17.2529
78.48	17.2345
78.7	43.9149
78.92	1.12082
79.14	12.1678
79.36	24.8596
79.58	15.183
79.8	28.197
80.02	34.7501
80.24	16.7496
80.46	10.5213
80.68	10.5404
80.9	8.89311
81.12	33.2182
81.34	3.07819
81.56	11.018
81.78	16.7988
82	28.0447
82.22	8.75905
82.44	5.11209
82.66	22.0105
82.88	23.0589
83.1	22.0082
83.32	11.2548
83.54	10.7736
83.76	23.2115
83.98	3.60556
84.2	25.7181
84.42	21.4395
84.64	31.0144
84.86	33.5606
85.08	40.394
85.3	22.4473
85.52	30.9933
85.74	13.5544
85.96	39.4681
86.18	31.9389
86.4	10.0942
86.62	18.535
86.84	13.8559
87.06	17.8879
87.28	23.8995
87.5	28.3322
87.72	11.6811
87.94	6.88769
88.16	22.0532
88.38	32.588
88.6	20.6954
88.82	4.73126
89.04	19.2264
89.26	31.144
89.48	2.3595
89.7	33.1376
89.92	36.4626
