Measurement: Powder, Xray Data XY Processed
Mineral: Delhayelite
Rruff sample: R070096
Ideal chemistry: K_7_Na_3_Ca_5_Al_2_Si_14_O_38_F_4_Cl_2_
Locality: Yukspor Mountain, Khibiny Massif, Kola Peninsula, Russia
Source: Michael Scott
Description: Dark gray to colorless cleavage fragments associated with brown lamprophyllite, elongated blue aegerine, light yellow fenakite, grayish brown lomonosovite and very pale yellow to colorless Fenaksite (R080135).
Diffraction sample description: Powder
Measured chemistry: K_7.25_Na_3.44_(Ca_4.32_Na_0.66_Mn_0.02_)_Σ=5_(Al_1.97_Fe^3+^_0.03_)_Σ=2_(Si_13.97_Al_0.03_)_Σ=14_O_38_F_4_(Cl_1.70_F_0.30_)_Σ=2_
Cell parameters: a: 24.5858(9) b: 7.0626(4) c: 6.5756(3) alpha: 90 beta: 90 gamma: 90 volume: 1141.78(6) crystal system: orthorhombic
x	intensity
5	0
5.22	12.6721
5.44	12.9271
5.66	6.76502
5.88	6.87328
6.1	2.70071
6.32	5.94468
6.54	17.5072
6.76	20.5538
6.98	28.615
7.2	976.15
7.42	4.44619
7.64	2.54083
7.86	6.51723
8.08	0.369232
8.3	4.99457
8.52	15.3194
8.74	17.2683
8.96	0.986482
9.18	12.8294
9.4	11.6188
9.62	5.23007
9.84	3.22512
10.06	4.73285
10.28	11.0293
10.5	8.41321
10.72	0.392434
10.94	4.35027
11.16	3.29163
11.38	3.999
11.6	5.08843
11.82	10.0685
12.04	7.11569
12.26	10.1671
12.48	2.8921
12.7	4.13212
12.92	2.09157
13.14	11.6838
13.36	5.48195
13.58	9.99673
13.8	1.06316
14.02	24.7936
14.24	6.61612
14.46	370.825
14.68	15.7448
14.9	1.56095
15.12	3.57934
15.34	0.813178
15.56	2.10667
15.78	7.57843
16	7.78563
16.22	3.72648
16.44	7.9778
16.66	3.24849
16.88	7.26835
17.1	1.76512
17.32	64.7837
17.54	2.66577
17.76	2.42358
17.98	1.41229
18.2	13.1684
18.42	6.30501
18.64	0.36979
18.86	5.0941
19.08	7.01075
19.3	9.82662
19.52	8.84874
19.74	26.8767
19.96	4.88645
20.18	7.84987
20.4	6.00488
20.62	6.86261
20.84	7.49449
21.06	1.42077
21.28	9.30241
21.5	20.2819
21.72	16.4609
21.94	0.864443
22.16	4.12311
22.38	2.12915
22.6	18.1361
22.82	11.3746
23.04	4.63581
23.26	6.73935
23.48	19.6649
23.7	5.0847
23.92	6.30896
24.14	4.87506
24.36	7.67793
24.58	5.29889
24.8	5.10414
25.02	10.7969
25.24	82.1631
25.46	13.0367
25.68	157.048
25.9	19.1908
26.12	8.42373
26.34	23.788
26.56	2.66265
26.78	8.18094
27	4.81799
27.22	9.74617
27.44	39.1022
27.66	3.32187
27.88	9.88383
28.1	6.53468
28.32	23.6547
28.54	16.7362
28.76	20.2618
28.98	177.269
29.2	114.804
29.42	9.25123
29.64	8.7144
29.86	10.4157
30.08	15.4985
30.3	62.1301
30.52	5.21465
30.74	286.306
30.96	39.7411
31.18	3.23302
31.4	8.40573
31.62	176.696
31.84	5.04063
32.06	18.8614
32.28	82.7511
32.5	8.15265
32.72	0.731179
32.94	7.6887
33.16	4.79068
33.38	25.7708
33.6	9.11576
33.82	7.42186
34.04	0.336606
34.26	3.95322
34.48	3.96413
34.7	6.00259
34.92	8.10831
35.14	11.9286
35.36	17.7774
35.58	12.8551
35.8	2.76068
36.02	2.17511
36.24	96.4702
36.46	8.78953
36.68	1.31063
36.9	1.89287
37.12	9.95531
37.34	11.2301
37.56	9.31066
37.78	8.33858
38	7.86646
38.22	6.62639
38.44	4.51645
38.66	3.2691
38.88	15.0585
39.1	16.7357
39.32	4.92918
39.54	5.87875
39.76	16.5743
39.98	3.01693
40.2	6.05604
40.42	6.12093
40.64	6.80197
40.86	11.4114
41.08	5.45666
41.3	34.5039
41.52	3.47889
41.74	7.01409
41.96	7.95826
42.18	14.8017
42.4	0.430758
42.62	0.432312
42.84	3.49666
43.06	17.4155
43.28	0.486825
43.5	3.17638
43.72	20.2948
43.94	9.28371
44.16	8.47756
44.38	12.5112
44.6	0.546492
44.82	7.42596
45.04	19.2288
45.26	7.03335
45.48	6.87903
45.7	25.2994
45.92	0.576819
46.14	16.3437
46.36	12.7154
46.58	10.7656
46.8	8.04349
47.02	18.1531
47.24	27.3177
47.46	5.26535
47.68	8.34034
47.9	3.32618
48.12	17.4038
48.34	7.53905
48.56	7.65276
48.78	8.09696
49	27.5068
49.22	0.049535
49.44	3.39277
49.66	5.28675
49.88	42.6107
50.1	7.46177
50.32	12.3047
50.54	1.90903
50.76	6.45259
50.98	2.9942
51.2	24.7711
51.42	3.69384
51.64	0.412323
51.86	22.7943
52.08	21.9171
52.3	0.648798
52.52	17.7402
52.74	50.98
52.96	9.44061
53.18	15.9842
53.4	13.0553
53.62	18.1484
53.84	9.07049
54.06	22.0399
54.28	10.4342
54.5	9.75061
54.72	4.16468
54.94	7.46886
55.16	0.650085
55.38	0.741765
55.6	0.964368
55.82	12.6738
56.04	19.2825
56.26	11.7756
56.48	5.33774
56.7	8.15282
56.92	7.86622
57.14	0.042673
57.36	5.42224
57.58	17.2463
57.8	5.04061
58.02	7.49834
58.24	12.7146
58.46	1.67339
58.68	15.0077
58.9	7.70875
59.12	14.4427
59.34	2.2192
59.56	11.521
59.78	3.26195
60	0.228799
60.22	28.303
60.44	28.3167
60.66	22.9623
60.88	1.32064
61.1	7.08955
61.32	6.35656
61.54	5.64168
61.76	1.98565
61.98	1.24777
62.2	4.68093
62.42	7.84358
62.64	12.1337
62.86	5.31167
63.08	0.252431
63.3	9.13007
63.52	5.27591
63.74	8.59373
63.96	5.71045
64.18	29.8123
64.4	10.0824
64.62	5.19101
64.84	0.204589
65.06	3.23482
65.28	15.3478
65.5	1.42313
65.72	11.1352
65.94	18.501
66.16	13.3177
66.38	10.1899
66.6	8.72261
66.82	6.25632
67.04	9.09363
67.26	0.961392
67.48	11.7872
67.7	6.63859
67.92	5.51872
68.14	16.5166
68.36	8.24184
68.58	3.34703
68.8	8.59016
69.02	1.13238
69.24	3.27801
69.46	7.81913
69.68	3.16486
69.9	11.705
70.12	7.94339
70.34	6.21247
70.56	4.51027
70.78	5.37737
71	10.2016
71.22	9.20558
71.44	2.01402
71.66	5.50487
71.88	14.9339
72.1	10.8474
72.32	2.55275
72.54	6.42592
72.76	14.6935
72.98	6.53072
73.2	10.7857
73.42	4.91896
73.64	18.8726
73.86	6.04574
74.08	2.28342
74.3	12.9222
74.52	4.04977
74.74	2.29381
74.96	1.25011
75.18	0.435288
75.4	3.53876
75.62	5.39541
75.84	5.37032
76.06	1.29519
76.28	6.21344
76.5	5.14547
76.72	10.881
76.94	18.8028
77.16	5.61415
77.38	5.9026
77.6	7.71714
77.82	3.64372
78.04	3.61201
78.26	5.68691
78.48	0.857042
78.7	1.02431
78.92	1.24975
79.14	2.81445
79.36	11.6613
79.58	4.67599
79.8	5.29711
80.02	8.10022
80.24	7.02896
80.46	5.15562
80.68	13.4282
80.9	9.30645
81.12	12.3974
81.34	16.6634
81.56	2.65659
81.78	4.83697
82	9.01005
82.22	5.01972
82.44	5.0162
82.66	1.96422
82.88	2.78502
83.1	8.44108
83.32	13.2362
83.54	10.2629
83.76	7.47113
83.98	12.4144
84.2	8.11569
84.42	11.0482
84.64	2.24233
84.86	2.43199
85.08	7.56398
85.3	4.78192
85.52	7.09689
85.74	3.03428
85.96	5.04848
86.18	7.08858
86.4	4.45391
86.62	3.54558
86.84	9.62677
87.06	1.26548
87.28	10.7483
87.5	1.25965
87.72	12.6449
87.94	7.38657
88.16	1.56099
88.38	10.4074
88.6	1.4024
88.82	6.14693
89.04	7.17548
89.26	10.951
89.48	3.14794
89.7	0.183938
89.92	3.31567
