Measurement: Powder, Xray Data XY Processed
Mineral: Despujolsite
Rruff sample: R100208
Ideal chemistry: Ca_3_Mn^4+^(S^6+^O_4_)_2_(OH)_6_3H_2_O
Locality: N'Chwaning III mine, Kalahari manganese field, Northern Cape Province, South Africa
Source: Marcus Origlieri
Description: Lime green transparent crystal fragment. Sample was used in Barkley et al (2011)
Diffraction sample description: Powder
Measured chemistry: Ca_3.44_(Mn^+4^_0.86_Fe^+3^_0.06_)_Σ=0.92_(S_0.96_O_4_)_2_(OH)_6_·3H_2_O
Cell parameters: a: 8.5264(1) b: 8.5264(1) c: 10.7900(3) alpha: 90 beta: 90 gamma: 120 volume: 679.33(2) crystal system: hexagonal
x	intensity
5	0
5.22	25.7488
5.44	47.3409
5.66	57.5919
5.88	50.1054
6.1	59.854
6.32	36.7014
6.54	7.76956
6.76	14.1442
6.98	2.15402
7.2	48.3903
7.42	2.79842
7.64	12.1222
7.86	12.6102
8.08	32.9885
8.3	8.84265
8.52	18.8013
8.74	14.3988
8.96	4.78834
9.18	12.5241
9.4	36.1926
9.62	24.2516
9.84	1.54314
10.06	25.3914
10.28	30.9325
10.5	2.33058
10.72	2.87839
10.94	18.2157
11.16	6.70201
11.38	18.5438
11.6	30.047
11.82	121.085
12.04	177.666
12.26	5.6387
12.48	10.7252
12.7	10.9742
12.92	23.1249
13.14	23.5824
13.36	23.0216
13.58	35.4401
13.8	17.3845
14.02	28.1459
14.24	12.2563
14.46	246.643
14.68	26.3546
14.9	10.5986
15.12	16.9887
15.34	29.7123
15.56	29.3415
15.78	25.359
16	19.4609
16.22	12.4269
16.44	20.4633
16.66	4.98148
16.88	18.537
17.1	20.8107
17.32	18.7225
17.54	13.3216
17.76	28.0438
17.98	10.6532
18.2	42.2679
18.42	0.357193
18.64	11.4382
18.86	17.1725
19.08	5.31029
19.3	9.24737
19.52	3.70509
19.74	26.2723
19.96	15.5548
20.18	7.54079
20.4	2.84051
20.62	46.4266
20.84	903.336
21.06	44.8802
21.28	26.6461
21.5	20.2906
21.72	16.8685
21.94	19.1796
22.16	13.9266
22.38	21.4497
22.6	10.1866
22.82	11.879
23.04	18.7658
23.26	14.5141
23.48	16.8141
23.7	0.815498
23.92	17.8187
24.14	137.883
24.36	1.00241
24.58	9.47439
24.8	37.1197
25.02	11.9405
25.24	7.91285
25.46	839.613
25.68	28.4968
25.9	26.8966
26.12	13.7244
26.34	28.3994
26.56	617.165
26.78	123.224
27	22.9916
27.22	12.5226
27.44	9.16814
27.66	36.3937
27.88	25.827
28.1	14.5219
28.32	7.59535
28.54	1.91949
28.76	4.5704
28.98	11.1986
29.2	6.96747
29.42	27.3616
29.64	6.28098
29.86	13.5419
30.08	38.369
30.3	17.7141
30.52	16.9897
30.74	6.74496
30.96	10.4692
31.18	12.8227
31.4	15.1758
31.62	2.38524
31.84	4.99614
32.06	4.68522
32.28	3.35776
32.5	5.58401
32.72	21.791
32.94	12.873
33.16	77.4822
33.38	29.074
33.6	3.27431
33.82	16.8987
34.04	24.195
34.26	21.1684
34.48	6.3662
34.7	60.6814
34.92	134.369
35.14	19.6104
35.36	27.5852
35.58	13.2414
35.8	16.6633
36.02	26.9385
36.24	216.207
36.46	17.2304
36.68	5.30376
36.9	13.1838
37.12	18.2376
37.34	18.4991
37.56	46.7163
37.78	23.2412
38	5.2952
38.22	14.0704
38.44	26.1726
38.66	17.6579
38.88	15.8001
39.1	11.1198
39.32	16.3587
39.54	36.5012
39.76	8.51743
39.98	20.6327
40.2	308.424
40.42	27.3008
40.64	15.8657
40.86	354.553
41.08	21.1879
41.3	20.0195
41.52	40.3362
41.74	6.80489
41.96	0.13578
42.18	11.8972
42.4	281.581
42.62	26.9066
42.84	8.65288
43.06	0.412117
43.28	9.19885
43.5	1.25191
43.72	76.5662
43.94	4.40288
44.16	27.2169
44.38	37.2027
44.6	213.319
44.82	26.3029
45.04	24.8361
45.26	21.7052
45.48	14.2436
45.7	43.6011
45.92	7.20972
46.14	2.55441
46.36	6.57679
46.58	4.86089
46.8	64.2051
47.02	28.9145
47.24	18.3134
47.46	41.1129
47.68	2.84069
47.9	6.29318
48.12	6.35713
48.34	30.6763
48.56	0.356674
48.78	23.2637
49	26.1006
49.22	14.1655
49.44	16.1718
49.66	16.8418
49.88	8.32787
50.1	293.371
50.32	31.3414
50.54	11.7802
50.76	24.4924
50.98	21.3716
51.2	10.9421
51.42	11.6089
51.64	23.5067
51.86	19.6835
52.08	13.4918
52.3	66.8358
52.52	33.6786
52.74	12.2891
52.96	23.6092
53.18	16.4893
53.4	23.8579
53.62	172.643
53.84	22.7156
54.06	142.127
54.28	18.2292
54.5	14.2981
54.72	37.5153
54.94	103.032
55.16	14.6189
55.38	115.667
55.6	22.2494
55.82	9.47369
56.04	9.86828
56.26	16.4141
56.48	69.9656
56.7	21.5844
56.92	58.3109
57.14	55.9504
57.36	13.2617
57.58	24.6826
57.8	77.7314
58.02	14.3256
58.24	1.93461
58.46	31.4723
58.68	4.87939
58.9	11.8784
59.12	9.15025
59.34	19.887
59.56	25.7206
59.78	86.0497
60	119.811
60.22	10.2472
60.44	15.4712
60.66	16.4085
60.88	32.9734
61.1	10.8699
61.32	14.6748
61.54	18.4588
61.76	14.0175
61.98	19.8804
62.2	10.8422
62.42	22.2194
62.64	11.0004
62.86	77.66
63.08	6.2561
63.3	0.88205
63.52	36.9125
63.74	18.3252
63.96	13.9444
64.18	19.2086
64.4	8.7337
64.62	8.6804
64.84	14.6707
65.06	19.3925
65.28	5.72362
65.5	45.7613
65.72	26.5323
65.94	4.27712
66.16	21.8111
66.38	33.6979
66.6	5.55836
66.82	5.40915
67.04	15.1795
67.26	0.998589
67.48	16.0236
67.7	32.8585
67.92	22.0546
68.14	136.583
68.36	97.7704
68.58	19.4177
68.8	10.7131
69.02	8.43029
69.24	10.3417
69.46	7.3359
69.68	40.1401
69.9	9.654
70.12	10.1288
70.34	17.806
70.56	27.0487
70.78	12.3581
71	30.9553
71.22	22.1401
71.44	22.2918
71.66	36.7912
71.88	0.755936
72.1	18.1789
72.32	8.35797
72.54	37.1008
72.76	21.5398
72.98	6.46703
73.2	17.0213
73.42	18.4276
73.64	6.70023
73.86	14.1614
74.08	40.0913
74.3	19.3233
74.52	2.45701
74.74	12.7718
74.96	34.8456
75.18	34.5259
75.4	7.3414
75.62	11.0842
75.84	16.7459
76.06	9.15753
76.28	17.9026
76.5	10.878
76.72	0.094673
76.94	7.48161
77.16	19.4423
77.38	29.735
77.6	34.5254
77.82	11.9047
78.04	4.16488
78.26	23.153
78.48	13.9154
78.7	23.8131
78.92	4.71603
79.14	10.2652
79.36	43.7716
79.58	31.0821
79.8	48.9703
80.02	43.6206
80.24	19.8128
80.46	4.57566
80.68	6.21471
80.9	8.15034
81.12	26.3355
81.34	18.6015
81.56	36.452
81.78	10.018
82	9.63843
82.22	0.940483
82.44	7.50853
82.66	16.4816
82.88	17.3684
83.1	11.4698
83.32	17.2074
83.54	31.6924
83.76	31.2581
83.98	29.148
84.2	31.4791
84.42	7.78822
84.64	4.09968
84.86	12.327
85.08	89.3974
85.3	40.4425
85.52	4.02614
85.74	25.5218
85.96	4.53294
86.18	29.7939
86.4	15.9884
86.62	15.44
86.84	17.5694
87.06	27.4965
87.28	2.93211
87.5	26.569
87.72	0.909012
87.94	5.31333
88.16	30.4699
88.38	25.5183
88.6	21.4211
88.82	12.4752
89.04	45.8411
89.26	34.8
89.48	9.76534
89.7	1.36442
89.92	25.558
