Measurement: Powder, Xray Data XY Processed
Mineral: Destinezite
Rruff sample: R050631
Ideal chemistry: Fe^3+^_2_(PO_4_)(S^6+^O_4_)(OH)6H_2_O
Locality: Patagonia Mountains, Arizona, USA
Source: University of Arizona Mineral Museum
Description: Colorless acicular crystal
Diffraction sample description: Powder
Cell parameters: a: 9.566(3) b: 9.730(4) c: 7.331(3) alpha: 98.67(5) beta: 107.94(4) gamma: 64.06(4) volume: 583.7(2) crystal system: triclinic
x	intensity
5	0
5.22	30.4088
5.44	43.9824
5.66	28.6658
5.88	9.48581
6.1	44.1946
6.32	17.2406
6.54	24.3169
6.76	35.7649
6.98	17.5607
7.2	23.339
7.42	27.7902
7.64	41.4129
7.86	27.9056
8.08	42.5137
8.3	11.9948
8.52	24.9037
8.74	20.581
8.96	3.25914
9.18	10.9295
9.4	24.3229
9.62	14.9697
9.84	17.3746
10.06	149.164
10.28	51.7633
10.5	41.5471
10.72	298.513
10.94	37.1271
11.16	69.9921
11.38	25.1692
11.6	14.6367
11.82	12.3438
12.04	10.0529
12.26	38.5459
12.48	21.3419
12.7	42.5566
12.92	19.6682
13.14	9.71159
13.36	47.1116
13.58	11.9241
13.8	20.6153
14.02	43.1451
14.24	33.6694
14.46	18.8444
14.68	31.8686
14.9	8.41067
15.12	6.60353
15.34	13.6278
15.56	11.3285
15.78	36.4765
16	16.9398
16.22	9.349
16.44	46.3524
16.66	14.5147
16.88	33.761
17.1	7.09894
17.32	11.0414
17.54	71.9561
17.76	35.9743
17.98	13.2266
18.2	42.6656
18.42	6.8004
18.64	41.2632
18.86	22.0718
19.08	6.2773
19.3	28.7581
19.52	6.7885
19.74	26.5829
19.96	6.34546
20.18	29.6765
20.4	104.914
20.62	12.0475
20.84	27.017
21.06	34.0268
21.28	5.61098
21.5	48.1589
21.72	75.8741
21.94	33.1397
22.16	18.9064
22.38	39.6195
22.6	159.033
22.82	26.4584
23.04	30.5953
23.26	21.0934
23.48	22.4641
23.7	20.7624
23.92	3.43587
24.14	19.3312
24.36	24.7942
24.58	9.55873
24.8	19.6192
25.02	4.03403
25.24	7.4519
25.46	26.2198
25.68	21.1033
25.9	20.2499
26.12	2.55331
26.34	6.36375
26.56	1.2305
26.78	41.7279
27	14.4754
27.22	21.5536
27.44	15.9248
27.66	25.4427
27.88	69.9477
28.1	25.995
28.32	34.8991
28.54	74.5187
28.76	44.7254
28.98	49.894
29.2	66.817
29.42	3.37263
29.64	15.2862
29.86	55.2997
30.08	2.10843
30.3	51.989
30.52	72.7972
30.74	54.6114
30.96	11.3404
31.18	14.8824
31.4	28.2712
31.62	27.6653
31.84	26.3348
32.06	17.1421
32.28	46.502
32.5	14.4268
32.72	21.5894
32.94	39.0787
33.16	30.7609
33.38	13.266
33.6	29.4784
33.82	30.411
34.04	16.0368
34.26	6.96208
34.48	47.7023
34.7	23.152
34.92	7.03143
35.14	17.8417
35.36	8.10812
35.58	35.1069
35.8	40.4894
36.02	30.5239
36.24	10.9703
36.46	25.8546
36.68	15.2958
36.9	22.767
37.12	38.8767
37.34	41.2281
37.56	42.608
37.78	22.4132
38	0.782318
38.22	25.0392
38.44	4.31096
38.66	7.05203
38.88	2.28705
39.1	11.0625
39.32	21.1044
39.54	23.0606
39.76	50.8892
39.98	22.3621
40.2	15.9787
40.42	32.475
40.64	10.087
40.86	11.2623
41.08	4.81293
41.3	16.7231
41.52	33.435
41.74	20.4291
41.96	22.9564
42.18	5.75404
42.4	30.0494
42.62	32.9869
42.84	4.22308
43.06	44.3274
43.28	14.3505
43.5	26.4664
43.72	3.30185
43.94	25.043
44.16	36.672
44.38	48.9596
44.6	42.5472
44.82	14.8854
45.04	16.3399
45.26	32.7438
45.48	38.5126
45.7	18.477
45.92	11.3665
46.14	15.878
46.36	36.1569
46.58	28.2384
46.8	8.67975
47.02	17.6115
47.24	8.70731
47.46	16.1377
47.68	7.83775
47.9	28.0878
48.12	14.8368
48.34	17.451
48.56	33.1641
48.78	1.82344
49	54.7845
49.22	19.8324
49.44	6.35886
49.66	24.4689
49.88	31.1285
50.1	26.5415
50.32	13.9075
50.54	18.3806
50.76	11.7373
50.98	37.5718
51.2	19.785
51.42	19.8165
51.64	26.1621
51.86	19.7078
52.08	29.5741
52.3	32.2723
52.52	25.907
52.74	51.934
52.96	20.7938
53.18	47.4121
53.4	19.4589
53.62	21.9298
53.84	3.56706
54.06	26.2486
54.28	22.5974
54.5	39.9718
54.72	29.7548
54.94	4.16885
55.16	20.0596
55.38	15.5591
55.6	28.1668
55.82	20.0159
56.04	21.2927
56.26	9.92992
56.48	6.95653
56.7	29.7278
56.92	9.02832
57.14	12.7248
57.36	32.8393
57.58	42.5387
57.8	33.8133
58.02	17.4973
58.24	22.7533
58.46	4.17531
58.68	4.81819
58.9	18.6915
59.12	0.135635
59.34	19.4774
59.56	19.8672
59.78	20.3504
60	36.7959
60.22	17.7448
60.44	19.7624
60.66	3.92333
60.88	4.82588
61.1	23.0803
61.32	23.1981
61.54	12.9162
61.76	9.6467
61.98	4.43326
62.2	12.6686
62.42	26.4696
62.64	15.9291
62.86	14.9346
63.08	35.8554
63.3	18.4754
63.52	19.2596
63.74	21.6004
63.96	21.3635
64.18	18.3244
64.4	30.0351
64.62	33.8211
64.84	10.9113
65.06	23.1858
65.28	32.6704
65.5	14.9183
65.72	27.7118
65.94	1.97661
66.16	3.30299
66.38	21.4189
66.6	38.4809
66.82	29.8663
67.04	47.5136
67.26	18.997
67.48	36.8006
67.7	27.6116
67.92	42.0124
68.14	18.7721
68.36	14.8501
68.58	20.8656
68.8	37.3796
69.02	9.54979
69.24	8.22784
69.46	17.9377
69.68	15.2615
69.9	29.6839
70.12	14.0035
70.34	11.1027
70.56	12.1266
70.78	0.325623
71	10.1776
71.22	7.37398
71.44	28.238
71.66	2.31044
71.88	5.51718
72.1	20.282
72.32	10.8171
72.54	15.3226
72.76	28.3976
72.98	55.2542
73.2	16.4736
73.42	9.98656
73.64	12.7292
73.86	24.1079
74.08	23.6725
74.3	27.0589
74.52	21.4379
74.74	20.6376
74.96	42.6905
75.18	4.32367
75.4	6.29135
75.62	3.6749
75.84	17.9606
76.06	36.0326
76.28	19.3683
76.5	30.7295
76.72	13.9323
76.94	20.6543
77.16	12.2073
77.38	35.9748
77.6	10.0414
77.82	25.0646
78.04	20.2022
78.26	20.3497
78.48	26.6455
78.7	33.1841
78.92	14.9509
79.14	40.3001
79.36	24.3808
79.58	28.4912
79.8	10.3333
80.02	12.9756
80.24	1.75809
80.46	27.4969
80.68	26.5416
80.9	5.46771
81.12	29.2208
81.34	16.2084
81.56	11.7302
81.78	21.585
82	21.081
82.22	19.7322
82.44	18.996
82.66	53.3646
82.88	3.45283
83.1	13.7165
83.32	18.5389
83.54	8.7963
83.76	21.9602
83.98	7.21819
84.2	35.8797
84.42	34.9486
84.64	26.069
84.86	19.5988
85.08	25.477
85.3	26.8227
85.52	18.6833
85.74	5.28062
85.96	17.4826
86.18	11.6314
86.4	15.5296
86.62	3.28351
86.84	2.12612
87.06	31.5868
87.28	14.6026
87.5	11.9291
87.72	24.6208
87.94	20.3554
88.16	21.256
88.38	22.9786
88.6	43.0016
88.82	26.0164
89.04	34.6493
89.26	13.9311
89.48	8.64632
89.7	21.5254
89.92	13.5845
