Measurement: Powder, Xray Data XY Processed
Mineral: Diaphorite
Rruff sample: R060173
Ideal chemistry: Ag^1+^_3_Pb^2+^_2_Sb^3+^_3_S^2-^_8_
Locality: Van Silver mine, Vancouver, British Columbia, Canada
Source: Ty Balacko
Description: Steel-gray striated prismatic crystals
Diffraction sample description: Single crystal, powder profile is calculated
Measured chemistry: (Pb_1.90_Ag_0.07_Cu_0.03_)_Î£=2_Ag_3.00_Sb_3.00_S_8.00_
Cell parameters: a: 17.93(1) b: 5.906(4) c: 15.880(6) alpha: 90 beta: 116.31(3) gamma: 90 volume: 1507(2) crystal system: monoclinic
x	intensity
5	0
5.22	0
5.44	0.417
5.66	0
5.88	0
6.1	0
6.32	0
6.54	0
6.76	0
6.98	0
7.2	0
7.42	0
7.64	0
7.86	0
8.08	0
8.3	0
8.52	0
8.74	0
8.96	0
9.18	0
9.4	0
9.62	0
9.84	0
10.06	0
10.28	0
10.5	0
10.72	0
10.94	0.132
11.16	0.847
11.38	0
11.6	0
11.82	0
12.04	0
12.26	0
12.48	0.119
12.7	0
12.92	0
13.14	0
13.36	0
13.58	0
13.8	0
14.02	0
14.24	0
14.46	0
14.68	0
14.9	0
15.12	0
15.34	0
15.56	0.001
15.78	0.125
16	0.076
16.22	0.37
16.44	0
16.66	0
16.88	0
17.1	0
17.32	0
17.54	0
17.76	0
17.98	0.013
18.2	0
18.42	0
18.64	0.278
18.86	0
19.08	0
19.3	0
19.52	3.087
19.74	0
19.96	0.846
20.18	0
20.4	0
20.62	0
20.84	0
21.06	0.003
21.28	0.069
21.5	0
21.72	1.385
21.94	0
22.16	0.006
22.38	1.727
22.6	0.002
22.82	0.186
23.04	0.177
23.26	0
23.48	0
23.7	0
23.92	0
24.14	0.165
24.36	0
24.58	0
24.8	0.299
25.02	1.434
25.24	0.969
25.46	0
25.68	0
25.9	0
26.12	0
26.34	0
26.56	0.022
26.78	38.2
27	27.442
27.22	0.029
27.44	0
27.66	0.545
27.88	0.08
28.1	0.012
28.32	0
28.54	0
28.76	0
28.98	0
29.2	0.275
29.42	0.022
29.64	0.001
29.86	0.185
30.08	0.235
30.3	21.837
30.52	0
30.74	0.026
30.96	9.16
31.18	0
31.4	0
31.62	51.492
31.84	0.568
32.06	0.206
32.28	0.087
32.5	0
32.72	0
32.94	0.002
33.16	0.432
33.38	0.006
33.6	0.113
33.82	0.861
34.04	0.002
34.26	0.935
34.48	0.018
34.7	0.723
34.92	0.419
35.14	0.019
35.36	0.598
35.58	0.002
35.8	1.758
36.02	0.003
36.24	0
36.46	0.034
36.68	0.338
36.9	0.243
37.12	0.003
37.34	0.009
37.56	1.04
37.78	0.04
38	0.19
38.22	0.002
38.44	0.068
38.66	0.609
38.88	0.796
39.1	0.072
39.32	0.131
39.54	0.126
39.76	0.096
39.98	0.531
40.2	1.744
40.42	0
40.64	0.276
40.86	0.09
41.08	0.499
41.3	0
41.52	0.012
41.74	0.024
41.96	0.083
42.18	0.002
42.4	0
42.62	0.03
42.84	0.019
43.06	0.106
43.28	2.964
43.5	0.086
43.72	0.235
43.94	0.115
44.16	0.656
44.38	25.492
44.6	0.005
44.82	0.032
45.04	4.542
45.26	2.168
45.48	0.013
45.7	8.227
45.92	0.004
46.14	0.062
46.36	3.029
46.58	0.239
46.8	0.001
47.02	0.962
47.24	1.094
47.46	0.368
47.68	0.04
47.9	0.212
48.12	0.003
48.34	0.868
48.56	0.004
48.78	0.348
49	0.028
49.22	3.19
49.44	1.938
49.66	0.05
49.88	0.078
50.1	0.475
50.32	0.096
50.54	0
50.76	3.195
50.98	0.5
51.2	0.197
51.42	0.631
51.64	5.981
51.86	2.334
52.08	0.011
52.3	0.009
52.52	0.051
52.74	0.399
52.96	0.435
53.18	0.487
53.4	11.388
53.62	0.205
53.84	2.841
54.06	0.026
54.28	0.121
54.5	0.019
54.72	0.138
54.94	0.688
55.16	0.214
55.38	3.09
55.6	0.176
55.82	1.684
56.04	0.063
56.26	0.068
56.48	0.058
56.7	0.147
56.92	0.043
57.14	0.128
57.36	0.035
57.58	0.006
57.8	0.148
58.02	0.106
58.24	0.429
58.46	0.034
58.68	0.473
58.9	0.102
59.12	0.069
59.34	0.139
59.56	0.066
59.78	0.062
60	0.087
60.22	0.087
60.44	0.055
60.66	0.333
60.88	0.222
61.1	0.319
61.32	0.215
61.54	0.111
61.76	0.184
61.98	0.154
62.2	0.044
62.42	0.032
62.64	0.051
62.86	0.393
63.08	0.416
63.3	1.713
63.52	0.298
63.74	0.038
63.96	0.189
64.18	0.051
64.4	0.179
64.62	0.119
64.84	0.133
65.06	0.17
65.28	0.012
65.5	0.297
65.72	0.169
65.94	0.561
66.16	3.616
66.38	0.568
66.6	0.156
66.82	0.735
67.04	0.559
67.26	0.078
67.48	0.096
67.7	0.077
67.92	0.285
68.14	0.292
68.36	0.182
68.58	0.056
68.8	0.061
69.02	0.493
69.24	0.558
69.46	0.083
69.68	0.005
69.9	0.058
70.12	0.064
70.34	0.192
70.56	0.042
70.78	0.145
71	0.907
71.22	1.052
71.44	1.977
71.66	0.695
71.88	0.202
72.1	0.801
72.32	1.98
72.54	0.68
72.76	0.05
72.98	0.029
73.2	1.125
73.42	0.823
73.64	1.034
73.86	0.57
74.08	0.246
74.3	0.478
74.52	0.361
74.74	3.012
74.96	1.471
75.18	0.259
75.4	0.204
75.62	1.839
75.84	1.827
76.06	0.616
76.28	0.321
76.5	0.158
76.72	0.06
76.94	0.049
77.16	0.06
77.38	0.292
77.6	0.5
77.82	0.173
78.04	0.017
78.26	0.027
78.48	0.093
78.7	0.285
78.92	0.787
79.14	0.367
79.36	0.006
79.58	0.057
79.8	0.046
80.02	0.212
80.24	0.211
80.46	0.045
80.68	0.549
80.9	0.236
81.12	0.389
81.34	0.411
81.56	0.136
81.78	0.097
82	0.257
82.22	0.088
82.44	0.078
82.66	1.328
82.88	0.758
83.1	0.347
83.32	0.092
83.54	2.037
83.76	1.123
83.98	0.247
84.2	0.282
84.42	0.099
84.64	0.022
84.86	0.218
85.08	0.142
85.3	0.437
85.52	0.237
85.74	0.6
85.96	0.233
86.18	0.03
86.4	0.085
86.62	0.094
86.84	0.062
87.06	0.354
87.28	0.164
87.5	0.018
87.72	0.077
87.94	0.072
88.16	0.817
88.38	0.27
88.6	0.052
88.82	0.16
89.04	0.559
89.26	0.131
89.48	0.02
89.7	0.057
89.92	0.155
