Measurement: Powder, Xray Data XY Processed
Mineral: Diaspore
Rruff sample: R060546
Ideal chemistry: AlO(OH)
Locality: Turkey
Source: Gemological Institute of America
Description: Platy transparent pale yellow fragment
Diffraction sample description: Powder
Measured chemistry: (Al_0.99_Fe^3+^_0.01_)_Î£=1_O(OH) ; OH estimated by difference; Fe^3+^ by charge balance
Cell parameters: a: 4.4035(1) b: 9.4324(3) c: 2.84753(8) alpha: 90. beta: 90. gamma: 90. volume: 118.276(4) crystal system: orthorhombic
x	intensity
5	0
5.22	4.44483
5.44	1.55139
5.66	6.54607
5.88	1.63714
6.1	7.85229
6.32	0.876534
6.54	7.68641
6.76	9.85309
6.98	4.16745
7.2	3.7289
7.42	12.056
7.64	13.2679
7.86	1.49575
8.08	2.76554
8.3	8.97197
8.52	9.16842
8.74	8.27775
8.96	5.32335
9.18	5.59233
9.4	5.90627
9.62	11.7077
9.84	4.92404
10.06	0.612921
10.28	6.66964
10.5	3.88761
10.72	2.10376
10.94	3.54772
11.16	5.73823
11.38	8.68892
11.6	1.8891
11.82	2.79866
12.04	2.94775
12.26	8.81112
12.48	2.88759
12.7	3.0963
12.92	3.12484
13.14	1.27225
13.36	1.15443
13.58	4.33635
13.8	3.51258
14.02	7.66914
14.24	2.93764
14.46	5.04659
14.68	0.16575
14.9	5.23422
15.12	0.782378
15.34	8.19815
15.56	3.34201
15.78	5.45658
16	3.41677
16.22	2.37541
16.44	3.32671
16.66	2.322
16.88	3.38324
17.1	0.418239
17.32	4.36653
17.54	5.4542
17.76	3.51454
17.98	5.41419
18.2	0.32345
18.42	3.31111
18.64	3.39612
18.86	7.49838
19.08	14.387
19.3	7.27946
19.52	7.24438
19.74	3.16856
19.96	3.11831
20.18	0.717112
20.4	6.3132
20.62	1.41383
20.84	1.39885
21.06	1.34154
21.28	3.17196
21.5	2.10086
21.72	1.12503
21.94	3.09904
22.16	1.08912
22.38	6.17663
22.6	14.9903
22.82	4.97978
23.04	5.14769
23.26	1.27749
23.48	4.46169
23.7	1.56513
23.92	6.67058
24.14	5.7292
24.36	2.90456
24.58	1.01536
24.8	5.9649
25.02	0.993643
25.24	1.97554
25.46	3.96827
25.68	2.04744
25.9	3.93418
26.12	0.019122
26.34	1.96671
26.56	3.93238
26.78	4.78702
27	3.63992
27.22	0.430377
27.44	1.51926
27.66	0.548307
27.88	4.47842
28.1	1.29065
28.32	1.26472
28.54	3.21623
28.76	0.240731
28.98	2.30234
29.2	2.33725
29.42	3.44567
29.64	0.489902
29.86	3.5124
30.08	1.60205
30.3	0.358068
30.52	4.7357
30.74	5.77846
30.96	0.798137
31.18	2.81574
31.4	1.75801
31.62	4.72767
31.84	5.71404
32.06	4.72576
32.28	1.69733
32.5	4.82872
32.72	2.82597
32.94	0.902501
33.16	4.97047
33.38	4.961
33.6	1.91243
33.82	2.97005
34.04	5.92568
34.26	1.8512
34.48	6.76257
34.7	3.57486
34.92	2.58542
35.14	3.39566
35.36	34.3561
35.58	7.23174
35.8	7.08282
36.02	1.10618
36.24	3.03394
36.46	4.33212
36.68	8.41267
36.9	3.3245
37.12	2.25833
37.34	3.09725
37.56	2.99737
37.78	1.82311
38	2.72976
38.22	0.337372
38.44	15.6274
38.66	5.5666
38.88	4.50673
39.1	27.4679
39.32	12.6857
39.54	0.730027
39.76	2.81586
39.98	0.059697
40.2	1.99775
40.42	2.15032
40.64	2.37348
40.86	4.47373
41.08	1.31283
41.3	0.151166
41.52	2.016
41.74	3.71939
41.96	0.4263
42.18	2.47629
42.4	0.539902
42.62	28.3051
42.84	7.08792
43.06	5.8
43.28	2.59528
43.5	8.56384
43.72	80.6124
43.94	19.7064
44.16	3.88103
44.38	5.10866
44.6	4.1667
44.82	2.15758
45.04	2.44433
45.26	3.61965
45.48	4.87282
45.7	1.10042
45.92	6.33412
46.14	3.39078
46.36	6.39266
46.58	3.33244
46.8	0.766545
47.02	6.28982
47.24	2.26172
47.46	3.14423
47.68	5.05801
47.9	2.02947
48.12	3.9756
48.34	3.81815
48.56	0.280126
48.78	2.75482
49	0.769611
49.22	2.82581
49.44	3.76076
49.66	1.77574
49.88	0.227885
50.1	2.96285
50.32	4.90406
50.54	9.98748
50.76	2.1401
50.98	3.22337
51.2	1.80988
51.42	0.612681
51.64	1.30471
51.86	8.28067
52.08	0.75925
52.3	2.205
52.52	2.91832
52.74	2.76558
52.96	8.64214
53.18	1.50256
53.4	7.38075
53.62	2.50682
53.84	15.3492
54.06	0.636603
54.28	2.55001
54.5	1.72791
54.72	4.87196
54.94	6.06016
55.16	1.09567
55.38	2.02029
55.6	1.99276
55.82	0.069557
56.04	1.63872
56.26	10.4349
56.48	60.2903
56.7	11.14
56.92	3.87775
57.14	4.6755
57.36	9.52402
57.58	19.6583
57.8	3.69501
58.02	0.713212
58.24	4.90703
58.46	4.10508
58.68	3.34465
58.9	20.5815
59.12	7.67844
59.34	4.99671
59.56	0.023809
59.78	5.00961
60	1.91657
60.22	0.069772
60.44	1.00338
60.66	3.83845
60.88	6.86071
61.1	8.73295
61.32	1.76984
61.54	5.43635
61.76	1.26671
61.98	2.16675
62.2	4.08768
62.42	1.07758
62.64	1.03803
62.86	25.0495
63.08	22.0372
63.3	2.10956
63.52	0.059666
63.74	1.99946
63.96	0.182629
64.18	1.20494
64.4	3.2323
64.62	0.757619
64.84	6.18468
65.06	6.42185
65.28	17.3494
65.5	11.3433
65.72	13.2854
65.94	24.1722
66.16	6.28764
66.38	1.09559
66.6	1.13954
66.82	11.2251
67.04	7.19404
67.26	2.184
67.48	1.81965
67.7	2.8201
67.92	8.90568
68.14	2.9568
68.36	30.1211
68.58	8.96124
68.8	2.13408
69.02	5.40834
69.24	3.30738
69.46	3.34293
69.68	5.41581
69.9	0.466445
70.12	3.46119
70.34	10.3122
70.56	9.40601
70.78	4.45447
71	7.61565
71.22	12.6896
71.44	3.38799
71.66	0.603149
71.88	6.43945
72.1	5.49486
72.32	0.443924
72.54	7.38259
72.76	12.2881
72.98	9.07903
73.2	3.96141
73.42	4.66405
73.64	19.7515
73.86	9.73716
74.08	5.92593
74.3	5.94361
74.52	2.89129
74.74	2.89534
74.96	1.89778
75.18	8.91793
75.4	0.922869
75.62	1.91797
75.84	9.86083
76.06	0.177548
76.28	1.9381
76.5	5.86157
76.72	7.84798
76.94	10.1369
77.16	5.23922
77.38	1.29367
77.6	5.25942
77.82	1.40429
78.04	1.56487
78.26	2.69162
78.48	5.51053
78.7	3.41087
78.92	1.33546
79.14	1.24278
79.36	3.95477
79.58	2.83819
79.8	5.74038
80.02	2.84775
80.24	0.353638
80.46	1.63998
80.68	3.42539
80.9	3.4256
81.12	2.44476
81.34	0.290267
81.56	5.27072
81.78	2.58212
82	0.778937
82.22	13.9791
82.44	12.849
82.66	3.88424
82.88	4.93588
83.1	3.88148
83.32	0.865999
83.54	2.91423
83.76	3.966
83.98	7.09594
84.2	3.76016
84.42	1.5488
84.64	1.40169
84.86	1.37389
85.08	12.4387
85.3	5.43354
85.52	0.455168
85.74	2.47406
85.96	0.663849
86.18	0.51122
86.4	0.539246
86.62	5.68064
86.84	1.82601
87.06	5.93747
87.28	5.0672
87.5	4.03251
87.72	3.10734
87.94	2.06568
88.16	8.137
88.38	2.13368
88.6	6.10858
88.82	1.17841
89.04	3.63182
89.26	2.4025
89.48	8.17391
89.7	5.89273
89.92	0.206497
