Measurement: Powder, Xray Data XY Processed
Mineral: Diaspore
Rruff sample: R060287
Ideal chemistry: AlO(OH)
Locality: Selcuk, Mugla Province, Turkey
Source: Herb Obodda
Description: Colorless transparent platy fragment
Diffraction sample description: Powder
Measured chemistry: (Al_0.99_Fe^3+^_0.01_)_Î£=1_O(OH) ; trace amounts of Ti;  OH estimated by difference ; Fe^3+^ by charge balance
Cell parameters: a: 4.3999(2) b: 9.4254(1) c: 2.8453(1) alpha: 90 beta: 90 gamma: 90 volume: 117.996(4) crystal system: orthorhombic
x	intensity
5	0
5.22	12.594
5.44	6.769
5.66	1.171
5.88	4.347
6.1	9.852
6.32	11.901
6.54	7.52
6.76	2.761
6.98	14.983
7.2	15.927
7.42	9.04
7.64	8.341
7.86	5.079
8.08	5.381
8.3	7.42
8.52	7.173
8.74	14.187
8.96	8.287
9.18	9.433
9.4	10.044
9.62	2.37
9.84	8.723
10.06	7.038
10.28	6.252
10.5	3.787
10.72	3.191
10.94	7.376
11.16	0.312
11.38	9.842
11.6	7.962
11.82	13.533
12.04	12.264
12.26	4.149
12.48	0.826
12.7	2.733
12.92	7.178
13.14	9.005
13.36	12.89
13.58	6.569
13.8	4.887
14.02	4.651
14.24	1.739
14.46	8.701
14.68	10.346
14.9	1.718
15.12	10.215
15.34	5.617
15.56	15.639
15.78	13.556
16	6.392
16.22	11.22
16.44	8.312
16.66	5.374
16.88	11.288
17.1	4.099
17.32	2.793
17.54	4.695
17.76	8.959
17.98	7.679
18.2	6.641
18.42	4.726
18.64	8.301
18.86	286.425
19.08	8.019
19.3	8.504
19.52	1.458
19.74	1.527
19.96	4.539
20.18	6.667
20.4	2.932
20.62	6.677
20.84	14.527
21.06	5.391
21.28	5.909
21.5	2.601
21.72	7.485
21.94	1.538
22.16	35.658
22.38	222.808
22.6	8.966
22.82	2.826
23.04	9.738
23.26	5.945
23.48	7.224
23.7	1.756
23.92	6.131
24.14	6.09
24.36	10.253
24.58	4.273
24.8	5.382
25.02	12.982
25.24	9.158
25.46	1.007
25.68	4.776
25.9	2.416
26.12	5.302
26.34	9.035
26.56	8.71
26.78	2.448
27	9.303
27.22	10.897
27.44	10.082
27.66	20.468
27.88	12.054
28.1	9.8
28.32	14.588
28.54	4.47
28.76	10.296
28.98	8.111
29.2	8.753
29.42	5.809
29.64	9.508
29.86	11.799
30.08	0.711
30.3	3.567
30.52	11.483
30.74	4.553
30.96	6.286
31.18	1.931
31.4	4.369
31.62	18.472
31.84	0.464
32.06	0.09
32.28	4.281
32.5	7.796
32.72	14.102
32.94	11.974
33.16	4.689
33.38	3.457
33.6	7.269
33.82	10.847
34.04	5.506
34.26	2.207
34.48	8.83
34.7	8.574
34.92	18.119
35.14	147.035
35.36	18.401
35.58	4.847
35.8	8.264
36.02	1.374
36.24	9.883
36.46	1.984
36.68	3.204
36.9	26.91
37.12	3.759
37.34	0.884
37.56	13.83
37.78	5.183
38	16.633
38.22	99.237
38.44	20.377
38.66	13.881
38.88	233.217
39.1	36.767
39.32	15.121
39.54	9.722
39.76	15.943
39.98	2.675
40.2	1.365
40.42	14.467
40.64	3.454
40.86	9.056
41.08	8.853
41.3	16.059
41.52	12.838
41.74	18.256
41.96	2.335
42.18	5.887
42.4	252.293
42.62	23.369
42.84	1.803
43.06	9.164
43.28	6.637
43.5	218.873
43.72	84.389
43.94	7.085
44.16	5.141
44.38	2.57
44.6	3.581
44.82	7.279
45.04	5.062
45.26	6.678
45.48	9.634
45.7	11.778
45.92	3.534
46.14	7.223
46.36	14.03
46.58	14.18
46.8	4.425
47.02	5.526
47.24	1.28
47.46	10.876
47.68	6.213
47.9	8.385
48.12	12.365
48.34	12.573
48.56	10.245
48.78	8.833
49	5.863
49.22	7.931
49.44	4.775
49.66	8.847
49.88	8.205
50.1	9.053
50.32	21.995
50.54	13.173
50.76	8.871
50.98	0.03
51.2	0.655
51.42	12.167
51.64	4.007
51.86	8.849
52.08	2.88
52.3	9.314
52.52	4.202
52.74	9.247
52.96	16.407
53.18	1.805
53.4	18.623
53.62	34.792
53.84	2.026
54.06	0.652
54.28	1.309
54.5	14.182
54.72	13.337
54.94	7.335
55.16	0.029
55.38	3.574
55.6	4.002
55.82	0.292
56.04	6.037
56.26	68.635
56.48	96.464
56.7	7.126
56.92	6.753
57.14	8.746
57.36	35.44
57.58	8.562
57.8	5.748
58.02	21.015
58.24	5.861
58.46	7.354
58.68	30.78
58.9	45.081
59.12	4.303
59.34	3.282
59.56	6.566
59.78	3.08
60	4.218
60.22	3.52
60.44	7.928
60.66	6.882
60.88	11.008
61.1	5.111
61.32	0.979
61.54	3.034
61.76	4.906
61.98	9.854
62.2	3.121
62.42	0.966
62.64	26.028
62.86	32.287
63.08	11.282
63.3	6.275
63.52	0.954
63.74	11.02
63.96	2.993
64.18	12.895
64.4	2.788
64.62	3.432
64.84	6.392
65.06	10.422
65.28	18.281
65.5	14.244
65.72	18.142
65.94	3.161
66.16	13.638
66.38	0.862
66.6	6.561
66.82	18.658
67.04	8.762
67.26	5.744
67.48	0.532
67.7	9.25
67.92	14.297
68.14	180.201
68.36	62.543
68.58	13.25
68.8	9.068
69.02	4.51
69.24	1.5
69.46	12.752
69.68	2.751
69.9	2.642
70.12	13.752
70.34	13.883
70.56	2.558
70.78	17.199
71	14.257
71.22	7.254
71.44	5.319
71.66	5.395
71.88	8.079
72.1	8.006
72.32	12.846
72.54	5.578
72.76	12.386
72.98	0.762
73.2	15.626
73.42	22.656
73.64	9.638
73.86	15.071
74.08	23.3
74.3	12.48
74.52	0.66
74.74	8.049
74.96	5.525
75.18	7.91
75.4	7.284
75.62	15.342
75.84	15.404
76.06	7.246
76.28	6.303
76.5	14.109
76.72	17.466
76.94	3.635
77.16	2.638
77.38	10.635
77.6	2.37
77.82	0.737
78.04	6.662
78.26	13.653
78.48	16.735
78.7	15.678
78.92	6.952
79.14	0.348
79.36	3.513
79.58	18.23
79.8	5.895
80.02	8.121
80.24	7.141
80.46	7.841
80.68	14.879
80.9	2.134
81.12	12.827
81.34	8.79
81.56	3.774
81.78	4.71
82	25.712
82.22	11.07
82.44	3.122
82.66	5.281
82.88	8.193
83.1	3.142
83.32	8.066
83.54	8.304
83.76	6.047
83.98	6.062
84.2	4.092
84.42	1.321
84.64	8.375
84.86	6.596
85.08	11.384
85.3	10.557
85.52	6.793
85.74	2.147
85.96	1.809
86.18	1.048
86.4	9.288
86.62	7.466
86.84	9.311
87.06	8.203
87.28	8.089
87.5	8.022
87.72	4.899
87.94	3.686
88.16	6.497
88.38	5.567
88.6	1.251
88.82	4.012
89.04	4.745
89.26	2.445
89.48	2.366
89.7	15.8
89.92	14.527
