Measurement: Powder, Xray Data XY Processed
Mineral: Diopside
Rruff sample: R050496
Ideal chemistry: CaMgSi_2_O_6_
Locality: New City Quarry, Riverside, Riverside County, Calfornia, USA
Source: California Institute of Technology
Description: Aggregate of light green irregular grains
Diffraction sample description: Powder
Measured chemistry: Ca(Mg_0.66_Fe_0.33_Mn_0.01_)(Si_0.95_Al_0.05_)_2_O_6_
Cell parameters: a: 9.7738(9) b: 8.9319(4) c: 5.2683(8) alpha: 90. beta: 105.69(1) gamma: 90. volume: 442.77(6) crystal system: monoclinic
x	intensity
5	0
5.22	14.053
5.44	7.903
5.66	10.791
5.88	20.254
6.1	20.266
6.32	16.693
6.54	4.113
6.76	18.97
6.98	9.745
7.2	15.393
7.42	14.008
7.64	4.738
7.86	1.887
8.08	5.956
8.3	7.885
8.52	1.782
8.74	7.722
8.96	1.484
9.18	18.679
9.4	8.381
9.62	13.548
9.84	18.754
10.06	1.357
10.28	4.862
10.5	5.022
10.72	8.483
10.94	14.755
11.16	10.68
11.38	4.426
11.6	2.546
11.82	3.49
12.04	4.436
12.26	9.268
12.48	10.054
12.7	6.683
12.92	2.496
13.14	24.548
13.36	4.916
13.58	13.886
13.8	12.822
14.02	4.601
14.24	13.089
14.46	2.253
14.68	12.081
14.9	11.629
15.12	5.572
15.34	2.364
15.56	13.045
15.78	7.49
16	7.691
16.22	18.315
16.44	3.84
16.66	10.936
16.88	15.856
17.1	8.41
17.32	3.076
17.54	11.465
17.76	10.671
17.98	6.35
18.2	0.562
18.42	1.375
18.64	7.935
18.86	20.823
19.08	4.495
19.3	4.577
19.52	3.435
19.74	4.697
19.96	22.371
20.18	0.434
20.4	6.462
20.62	0.559
20.84	2.368
21.06	1.857
21.28	2.367
21.5	12.43
21.72	1.05
21.94	13.662
22.16	5.285
22.38	11.761
22.6	1.366
22.82	11.074
23.04	10.865
23.26	1.724
23.48	0.609
23.7	8.998
23.92	13.239
24.14	3.053
24.36	2.62
24.58	11.045
24.8	12.909
25.02	0.526
25.24	15.328
25.46	5.641
25.68	1.765
25.9	9.327
26.12	7.238
26.34	1.625
26.56	8.657
26.78	1.183
27	2.147
27.22	7.474
27.44	13.302
27.66	36.518
27.88	6.063
28.1	3.41
28.32	1.735
28.54	7.053
28.76	11.425
28.98	4.778
29.2	1.87
29.42	10.935
29.64	12.506
29.86	354.56
30.08	28.352
30.3	112.376
30.52	10.583
30.74	5.657
30.96	37.747
31.18	10.944
31.4	0.134
31.62	1.307
31.84	11.421
32.06	4.808
32.28	2.216
32.5	14.74
32.72	8.865
32.94	3.812
33.16	7.25
33.38	5.683
33.6	0.581
33.82	6.522
34.04	8.583
34.26	13.537
34.48	5.659
34.7	6.85
34.92	61.63
35.14	5.281
35.36	35.319
35.58	279.554
35.8	13.062
36.02	19.166
36.24	12.399
36.46	1.281
36.68	1.657
36.9	12.234
37.12	4.526
37.34	30.986
37.56	18.536
37.78	8.651
38	4.422
38.22	9.909
38.44	2.979
38.66	1.351
38.88	20.882
39.1	17.015
39.32	0.992
39.54	9.69
39.76	0.268
39.98	8.503
40.2	21.274
40.42	17.118
40.64	18.045
40.86	14.405
41.08	12.263
41.3	1.76
41.52	7.615
41.74	9.977
41.96	39.76
42.18	24.755
42.4	44.418
42.62	5.686
42.84	33.142
43.06	15.051
43.28	2.34
43.5	13.188
43.72	0.542
43.94	5.713
44.16	8.374
44.38	32.078
44.6	15.373
44.82	13.877
45.04	30.42
45.26	13.614
45.48	8.853
45.7	12.232
45.92	2.263
46.14	25.551
46.36	0.341
46.58	18.183
46.8	11.57
47.02	1.293
47.24	2.937
47.46	3.607
47.68	12.837
47.9	6.099
48.12	13.458
48.34	10.053
48.56	0.677
48.78	8.439
49	4.393
49.22	0.426
49.44	13.221
49.66	26.147
49.88	14.946
50.1	0.975
50.32	18.016
50.54	8.239
50.76	15.709
50.98	5.813
51.2	26.812
51.42	4.056
51.64	15.457
51.86	8.86
52.08	87.965
52.3	18.421
52.52	6.657
52.74	4.772
52.96	8.698
53.18	22.574
53.4	13.546
53.62	1.548
53.84	0.78
54.06	4.989
54.28	8.357
54.5	13.249
54.72	20.587
54.94	6.618
55.16	6.169
55.38	0.959
55.6	0.501
55.82	5.321
56.04	1.365
56.26	22.473
56.48	34.565
56.7	32.613
56.92	18.671
57.14	2.952
57.36	1.322
57.58	12.824
57.8	10.088
58.02	20.279
58.24	4.681
58.46	8.624
58.68	3.353
58.9	24.429
59.12	1.118
59.34	8.856
59.56	25.964
59.78	7.193
60	0.622
60.22	7.85
60.44	17.542
60.66	14.11
60.88	14.398
61.1	5.5
61.32	7.94
61.54	12.205
61.76	9.116
61.98	4.721
62.2	7.763
62.42	22.045
62.64	1.354
62.86	8.312
63.08	4.254
63.3	2.517
63.52	3.39
63.74	5.277
63.96	6.314
64.18	0.005
64.4	4.783
64.62	6.074
64.84	25.233
65.06	5.605
65.28	20.41
65.5	36.583
65.72	0.779
65.94	1.396
66.16	6.614
66.38	15.202
66.6	16.071
66.82	2.266
67.04	16.967
67.26	16.72
67.48	21.142
67.7	14.049
67.92	2.257
68.14	15.439
68.36	13.649
68.58	1.289
68.8	1.084
69.02	3.159
69.24	19.366
69.46	13.398
69.68	9.998
69.9	0.643
70.12	8.921
70.34	4.042
70.56	16.643
70.78	10.386
71	8.493
71.22	3.703
71.44	8.291
71.66	11.805
71.88	5.437
72.1	9.56
72.32	1.033
72.54	1.144
72.76	5.474
72.98	11.194
73.2	13.338
73.42	7.528
73.64	5.87
73.86	15.786
74.08	1.605
74.3	6.517
74.52	4.064
74.74	6.962
74.96	1.634
75.18	3.58
75.4	7.579
75.62	17.481
75.84	7.89
76.06	8.375
76.28	17.473
76.5	4.954
76.72	4.74
76.94	1.325
77.16	3.558
77.38	7.834
77.6	2.874
77.82	5.973
78.04	14.518
78.26	2.74
78.48	5.173
78.7	13.775
78.92	3.195
79.14	2.707
79.36	12.426
79.58	11.424
79.8	10.042
80.02	1.365
80.24	16.371
80.46	11.229
80.68	12.19
80.9	18.772
81.12	3.738
81.34	1.317
81.56	1.057
81.78	1.245
82	6.012
82.22	0.599
82.44	10.424
82.66	1.743
82.88	8.326
83.1	4.601
83.32	7.826
83.54	3.078
83.76	4.024
83.98	17.118
84.2	6.678
84.42	20.35
84.64	8.944
84.86	4.109
85.08	15.954
85.3	10.528
85.52	0.461
85.74	3.116
85.96	1.095
86.18	6.496
86.4	4.295
86.62	0.171
86.84	11.551
87.06	10.885
87.28	13.81
87.5	10.892
87.72	1.21
87.94	10.034
88.16	12.808
88.38	8.07
88.6	22.882
88.82	11.288
89.04	0.778
89.26	8.138
89.48	10.473
89.7	13.921
89.92	2.781
