Measurement: Powder, Xray Data XY Processed
Mineral: Diopside
Rruff sample: R040097
Ideal chemistry: CaMgSi_2_O_6_
Locality: Fassathal, Tyrol
Source: University of Arizona Mineral Museum
Description: Green prismatic crystals
Diffraction sample description: Powder
Measured chemistry: Ca_1.00_(Mg_0.83_Al_0.10_Fe_0.09_Ca_0.02_Ti_0.02_)(Si_0.88_Al_0.12_)_2_O_6_
Cell parameters: a: 9.7503(6) b: 8.8914(7) c: 5.2734(4) alpha: 90. beta: 105.891(7) gamma: 90. volume: 439.70(4) crystal system: monoclinic
x	intensity
5	0
5.22	2.828
5.44	8.426
5.66	16.831
5.88	6.381
6.1	24.141
6.32	19.234
6.54	10.688
6.76	21.878
6.98	8.893
7.2	3.669
7.42	15.008
7.64	7.395
7.86	16.553
8.08	8.766
8.3	2.983
8.52	3.54
8.74	4.761
8.96	9.175
9.18	3.915
9.4	8.193
9.62	2.26
9.84	13.731
10.06	2.85
10.28	7.04
10.5	3.315
10.72	13.547
10.94	1.33
11.16	9.339
11.38	1.298
11.6	15.619
11.82	15.061
12.04	8.86
12.26	5.752
12.48	21.64
12.7	8.924
12.92	7.836
13.14	3.827
13.36	7.238
13.58	6.577
13.8	17.076
14.02	7.806
14.24	10.413
14.46	16.578
14.68	10.714
14.9	2.145
15.12	4.992
15.34	2.428
15.56	3.638
15.78	5.569
16	1.77
16.22	5.807
16.44	10.764
16.66	2.671
16.88	8.683
17.1	7.885
17.32	4.943
17.54	8.06
17.76	10.008
17.98	3.949
18.2	13.648
18.42	12.535
18.64	7.422
18.86	6.269
19.08	3.193
19.3	3.142
19.52	2.217
19.74	19.652
19.96	10.562
20.18	2.385
20.4	14.549
20.62	3.777
20.84	8.946
21.06	6.102
21.28	6.451
21.5	7.824
21.72	0.908
21.94	3.507
22.16	12.171
22.38	0.191
22.6	11.238
22.82	9.475
23.04	3.9
23.26	7.102
23.48	5.982
23.7	4.031
23.92	1.195
24.14	4.636
24.36	11.216
24.58	8.205
24.8	8.387
25.02	19.071
25.24	13.107
25.46	9.947
25.68	5.88
25.9	5.791
26.12	1.562
26.34	3.18
26.56	4.95
26.78	17.416
27	20.486
27.22	1.291
27.44	6.577
27.66	118.668
27.88	19.332
28.1	2.51
28.32	13.082
28.54	6.566
28.76	2.975
28.98	2.372
29.2	4.688
29.42	13.786
29.64	28.11
29.86	100.911
30.08	54.895
30.3	92.723
30.52	29.772
30.74	0.15
30.96	120.01
31.18	13.668
31.4	1.547
31.62	6.241
31.84	5.157
32.06	2.115
32.28	9.943
32.5	8.513
32.72	4.001
32.94	10.009
33.16	3.438
33.38	1.044
33.6	11.891
33.82	0.505
34.04	0.065
34.26	10.427
34.48	7.863
34.7	9.36
34.92	15.9
35.14	75.437
35.36	59.612
35.58	22.023
35.8	124.614
36.02	10.332
36.24	0.706
36.46	2.961
36.68	8.369
36.9	11.941
37.12	3.29
37.34	1.699
37.56	6.721
37.78	6.841
38	1.034
38.22	10.423
38.44	8.695
38.66	6.005
38.88	9.067
39.1	33.219
39.32	19.195
39.54	14.186
39.76	9.045
39.98	5.915
40.2	1.775
40.42	4.037
40.64	20.352
40.86	12.428
41.08	24.801
41.3	8.518
41.52	3.871
41.74	3.671
41.96	17.372
42.18	44.271
42.4	24.524
42.62	77.397
42.84	5.988
43.06	22.136
43.28	3.429
43.5	5.589
43.72	9.741
43.94	13.922
44.16	3.137
44.38	12.709
44.6	39.274
44.82	23.142
45.04	36.323
45.26	7.335
45.48	10.803
45.7	3.164
45.92	7.459
46.14	7.755
46.36	8.887
46.58	4.281
46.8	2.114
47.02	9.694
47.24	3.265
47.46	4.517
47.68	1.944
47.9	19.997
48.12	5.861
48.34	7.849
48.56	4.643
48.78	0.377
49	12.384
49.22	5.292
49.44	5.178
49.66	18.067
49.88	22.386
50.1	7.275
50.32	15.349
50.54	6.201
50.76	17.683
50.98	7.84
51.2	4.853
51.42	1.179
51.64	9.045
51.86	4.719
52.08	7.029
52.3	23.406
52.52	27.526
52.74	1.57
52.96	12.19
53.18	10.195
53.4	11.213
53.62	2.263
53.84	3.337
54.06	7.153
54.28	7.874
54.5	1.976
54.72	12.982
54.94	29.255
55.16	46.667
55.38	8.048
55.6	1.624
55.82	4.428
56.04	3.299
56.26	1.216
56.48	38.272
56.7	88.252
56.92	26.851
57.14	47.725
57.36	8.363
57.58	8.528
57.8	6.838
58.02	3.033
58.24	5.351
58.46	2.666
58.68	4.787
58.9	3.57
59.12	11.721
59.34	13.959
59.56	4.658
59.78	6.386
60	14.117
60.22	8.803
60.44	19.533
60.66	34.752
60.88	11.79
61.1	4.004
61.32	10.034
61.54	30.682
61.76	18.851
61.98	14.267
62.2	4.8
62.42	2.435
62.64	17.54
62.86	4.903
63.08	8.339
63.3	1.942
63.52	5.149
63.74	4.282
63.96	12.291
64.18	2.325
64.4	21.091
64.62	7.538
64.84	6.24
65.06	3.127
65.28	5.775
65.5	1.348
65.72	39.167
65.94	23.954
66.16	11.571
66.38	45.209
66.6	23.367
66.82	13.526
67.04	6.696
67.26	15.122
67.48	3.774
67.7	9.442
67.92	5.13
68.14	19.466
68.36	5.24
68.58	10.249
68.8	6.926
69.02	11.003
69.24	5.436
69.46	2.624
69.68	9.027
69.9	5.419
70.12	1.043
70.34	3.545
70.56	16.225
70.78	72.028
71	27.239
71.22	17.075
71.44	9.416
71.66	12.117
71.88	4.907
72.1	4.016
72.32	2.02
72.54	2.161
72.76	2.168
72.98	8.158
73.2	29.671
73.42	19.106
73.64	10.302
73.86	1.872
74.08	41.982
74.3	23.967
74.52	10.052
74.74	3.179
74.96	8.461
75.18	3.559
75.4	25.677
75.62	11.668
75.84	3.758
76.06	2.212
76.28	16.318
76.5	13.223
76.72	4.387
76.94	10.658
77.16	0.388
77.38	8.853
77.6	4.98
77.82	8.114
78.04	15.116
78.26	6.664
78.48	6.448
78.7	7.42
78.92	15.69
79.14	8.773
79.36	0.23
79.58	0.92
79.8	7.102
80.02	3.67
80.24	3.812
80.46	11.039
80.68	5.191
80.9	10.219
81.12	2.331
81.34	11.113
81.56	0.131
81.78	7.264
82	10.45
82.22	9.66
82.44	1.656
82.66	2.506
82.88	6.338
83.1	2.39
83.32	4.321
83.54	3.288
83.76	2.307
83.98	12.421
84.2	13.216
84.42	3.427
84.64	9.591
84.86	8.793
85.08	0.161
85.3	4.607
85.52	11.642
85.74	9.763
85.96	4.008
86.18	2.88
86.4	9.039
86.62	7.865
86.84	0.192
87.06	9.8
87.28	6.916
87.5	4.673
87.72	12.564
87.94	2.422
88.16	7.713
88.38	5.255
88.6	10.888
88.82	6.878
89.04	4.967
89.26	10.82
89.48	1.904
89.7	0.005
89.92	2.966
