Measurement: Powder, Xray Data XY Processed
Mineral: Diopside
Rruff sample: R060171
Ideal chemistry: CaMgSi_2_O_6_
Locality: Jeffrey mine, Asbestos, Quebec, Canada
Source: Guy Ouellet
Description: Yellowish-brown tabular crystals associated with vesuvianite, R060170
Diffraction sample description: Powder
Measured chemistry: Ca_1.00_(Mg_0.98_Mn_0.02_)_Î£=1_Si_2.00_O_6_
Cell parameters: a: 9.7564(6) b: 8.9313(4) c: 5.2528(4) alpha: 90 beta: 105.809(7) gamma: 90 volume: 440.40(4) crystal system: monoclinic
x	intensity
5	0
5.22	10.37
5.44	8.809
5.66	8.441
5.88	8.7
6.1	9.799
6.32	7.212
6.54	16.104
6.76	13.804
6.98	8.038
7.2	9.586
7.42	4.198
7.64	7.577
7.86	11.971
8.08	6.443
8.3	0.258
8.52	9.082
8.74	7.285
8.96	0.204
9.18	5.594
9.4	5.976
9.62	3.107
9.84	1.168
10.06	3.607
10.28	3.679
10.5	5.852
10.72	3.318
10.94	0.386
11.16	0.048
11.38	3.159
11.6	2.395
11.82	6.469
12.04	6.664
12.26	6.755
12.48	4.686
12.7	11.746
12.92	6.772
13.14	3.739
13.36	5.87
13.58	5.702
13.8	2.538
14.02	0.543
14.24	2.581
14.46	1.664
14.68	3.826
14.9	5.843
15.12	4.982
15.34	3.247
15.56	2.233
15.78	2.317
16	3.39
16.22	3.431
16.44	2.521
16.66	4.444
16.88	4.585
17.1	6.623
17.32	4.6
17.54	0.3
17.76	7.551
17.98	6.706
18.2	5.754
18.42	0.228
18.64	1.791
18.86	3.745
19.08	5.739
19.3	1.548
19.52	6.435
19.74	1.541
19.96	15.451
20.18	8.487
20.4	5.267
20.62	1.347
20.84	5.419
21.06	7.486
21.28	1.617
21.5	9.808
21.72	1.889
21.94	2.11
22.16	3.977
22.38	6.023
22.6	2.014
22.82	7.038
23.04	1.013
23.26	6.919
23.48	7.03
23.7	10.084
23.92	1.094
24.14	4.101
24.36	5.028
24.58	4.1
24.8	2.065
25.02	2.201
25.24	5.262
25.46	6.989
25.68	0.798
25.9	0.393
26.12	0.104
26.34	0.748
26.56	0.38
26.78	6.167
27	1.935
27.22	3.006
27.44	11.05
27.66	167.9
27.88	5.091
28.1	0.025
28.32	5.058
28.54	9.86
28.76	0.589
28.98	0.298
29.2	2.982
29.42	13.645
29.64	14.09
29.86	241.423
30.08	16.054
30.3	199.011
30.52	4.854
30.74	0.051
30.96	64.306
31.18	7.678
31.4	0.859
31.62	3.712
31.84	2.239
32.06	4.994
32.28	3.588
32.5	13.001
32.72	2.193
32.94	4.488
33.16	3.65
33.38	1.698
33.6	0.631
33.82	6.417
34.04	4.084
34.26	0.705
34.48	1.227
34.7	8.986
34.92	28.455
35.14	12.382
35.36	9.693
35.58	64.705
35.8	34.751
36.02	10.848
36.24	6.132
36.46	1.678
36.68	5.543
36.9	3.661
37.12	2.915
37.34	1.065
37.56	4.201
37.78	0.181
38	3.598
38.22	5.546
38.44	5.52
38.66	4.397
38.88	7.491
39.1	49.747
39.32	5.883
39.54	8.658
39.76	2.471
39.98	5.152
40.2	2.887
40.42	1.024
40.64	9.719
40.86	5.41
41.08	6.105
41.3	2.714
41.52	0.898
41.74	7.732
41.96	41.623
42.18	9.039
42.4	52.278
42.62	1.42
42.84	16.634
43.06	4.768
43.28	3.978
43.5	1.145
43.72	7.319
43.94	5.477
44.16	5.629
44.38	55.927
44.6	10.785
44.82	2.064
45.04	22.023
45.26	14.132
45.48	5.442
45.7	0.374
45.92	2.852
46.14	11.207
46.36	0.419
46.58	8.548
46.8	4.629
47.02	0.504
47.24	2.306
47.46	2.537
47.68	3.299
47.9	3.09
48.12	8.025
48.34	5.924
48.56	1.635
48.78	4.525
49	8.502
49.22	3.382
49.44	6.394
49.66	30.582
49.88	13.836
50.1	3.952
50.32	6.153
50.54	3.476
50.76	3.541
50.98	1.617
51.2	4.641
51.42	12.635
51.64	2.635
51.86	5.578
52.08	65.455
52.3	31.119
52.52	3.93
52.74	3.211
52.96	3.919
53.18	0.976
53.4	2.877
53.62	5.861
53.84	0.746
54.06	2.754
54.28	1.591
54.5	6.305
54.72	1.479
54.94	9.494
55.16	3.139
55.38	5.04
55.6	5.853
55.82	1.161
56.04	1.757
56.26	3.807
56.48	16.952
56.7	37.163
56.92	55.232
57.14	8.053
57.36	4.869
57.58	2.874
57.8	1.093
58.02	16.07
58.24	15.083
58.46	4.09
58.68	1.985
58.9	4.857
59.12	7.862
59.34	2.257
59.56	41.12
59.78	21.035
60	1.027
60.22	0.263
60.44	5.613
60.66	17.463
60.88	12.388
61.1	4.353
61.32	4.267
61.54	3.947
61.76	3.796
61.98	7.128
62.2	2.32
62.42	5.453
62.64	3.671
62.86	3.138
63.08	3.372
63.3	1.655
63.52	13.747
63.74	9.249
63.96	2.276
64.18	6.077
64.4	6.734
64.62	3.556
64.84	0.526
65.06	3.303
65.28	11.919
65.5	69.967
65.72	33.807
65.94	6.011
66.16	11.583
66.38	29.692
66.6	4.781
66.82	0.906
67.04	5.057
67.26	6.215
67.48	5.547
67.7	8.817
67.92	3.949
68.14	4.405
68.36	3.499
68.58	3.634
68.8	2.637
69.02	3.836
69.24	1.15
69.46	4.781
69.68	3.661
69.9	5.39
70.12	6.169
70.34	5.919
70.56	3.263
70.78	15.191
71	15.183
71.22	6.368
71.44	1.274
71.66	7.544
71.88	2.731
72.1	5.892
72.32	3.988
72.54	4.045
72.76	0.121
72.98	7.087
73.2	5.222
73.42	4.238
73.64	5.941
73.86	26.244
74.08	11.927
74.3	0.734
74.52	2.363
74.74	3.797
74.96	0.759
75.18	8.706
75.4	5.838
75.62	2.846
75.84	6.868
76.06	4.89
76.28	10.77
76.5	3.897
76.72	4.086
76.94	4.119
77.16	6.018
77.38	0.922
77.6	3.13
77.82	5.024
78.04	0.034
78.26	0.977
78.48	4.063
78.7	0.951
78.92	6.914
79.14	2.908
79.36	4.08
79.58	2.282
79.8	2.311
80.02	6.345
80.24	2.486
80.46	3.434
80.68	0.508
80.9	2.43
81.12	4.419
81.34	0.404
81.56	4.299
81.78	4.385
82	2.216
82.22	8.339
82.44	1.321
82.66	5.221
82.88	0.184
83.1	2.185
83.32	2.174
83.54	3.487
83.76	5.601
83.98	7.556
84.2	10.539
84.42	13.404
84.64	2.449
84.86	4.633
85.08	0.895
85.3	6.066
85.52	9.1
85.74	10.136
85.96	2.797
86.18	1.83
86.4	2.089
86.62	4.077
86.84	3.084
87.06	1.048
87.28	2.791
87.5	3.758
87.72	6.706
87.94	1.646
88.16	6.64
88.38	4.677
88.6	9.816
88.82	3.589
89.04	0.603
89.26	1.728
89.48	8.714
89.7	3.97
89.92	2.447
