Measurement: Powder, Xray Data XY Processed
Mineral: Diopside
Rruff sample: R060085
Ideal chemistry: CaMgSi_2_O_6_
Locality: Tyrol, Austria
Source: University of Arizona Mineral Museum
Description: Brownish-green massive
Diffraction sample description: Powder
Measured chemistry: (Ca_0.97_Na_0.03_)_Σ=1_(Mg_0.79_Fe^2+^_0.10_Fe^3+^_0.04_Al_0.04_Ti_0.02_Cr_0.01_)_Σ=1_(Si_1.90_Al_0.10_)_Σ=2_O_6_
Cell parameters: a: 9.7395(4) b: 8.9089(5) c: 5.2597(4) alpha: 90 beta: 106.123(5) gamma: 90 volume: 438.42(3) crystal system: monoclinic
x	intensity
5	0
5.22	13.338
5.44	5.862
5.66	3.754
5.88	20.227
6.1	16.387
6.32	6.742
6.54	12.808
6.76	3.437
6.98	5.685
7.2	5.119
7.42	2.123
7.64	2.942
7.86	8.896
8.08	4.696
8.3	13.442
8.52	0.808
8.74	4.743
8.96	4.362
9.18	1.286
9.4	7.685
9.62	5.343
9.84	2.384
10.06	11.437
10.28	8.818
10.5	5.018
10.72	8.08
10.94	2.068
11.16	7.083
11.38	2.226
11.6	7.04
11.82	8.034
12.04	8.067
12.26	39.666
12.48	8.77
12.7	20.609
12.92	4.922
13.14	7.466
13.36	8.656
13.58	10.805
13.8	6.022
14.02	6.197
14.24	2.386
14.46	8.946
14.68	3.992
14.9	9.238
15.12	2.491
15.34	7.555
15.56	7.363
15.78	5.612
16	5.013
16.22	5.213
16.44	7.175
16.66	6.226
16.88	2.141
17.1	1.575
17.32	0.428
17.54	17.025
17.76	10.707
17.98	11.299
18.2	1.949
18.42	16.348
18.64	10.221
18.86	5.778
19.08	11.54
19.3	12.513
19.52	4.981
19.74	4.061
19.96	10.219
20.18	6.529
20.4	8.72
20.62	0.281
20.84	0.901
21.06	11.88
21.28	7.189
21.5	5.529
21.72	9.053
21.94	17.241
22.16	9.898
22.38	13.141
22.6	8.119
22.82	7.331
23.04	5.318
23.26	10.795
23.48	7.679
23.7	9.514
23.92	9.158
24.14	7.725
24.36	1.738
24.58	6.733
24.8	15.686
25.02	0.486
25.24	5.774
25.46	9.588
25.68	2.657
25.9	8.846
26.12	1.294
26.34	9.476
26.56	11.547
26.78	26.448
27	7.396
27.22	8.947
27.44	5.48
27.66	76.46
27.88	9.42
28.1	1.465
28.32	6.173
28.54	3.475
28.76	8.865
28.98	6.302
29.2	7.664
29.42	8.039
29.64	0.6
29.86	119.936
30.08	20.732
30.3	26.261
30.52	18.065
30.74	2.295
30.96	64.742
31.18	10.828
31.4	0.407
31.62	3.489
31.84	2.352
32.06	14.084
32.28	10.891
32.5	8.553
32.72	9.887
32.94	6.528
33.16	3.549
33.38	12.253
33.6	14.284
33.82	3.475
34.04	7.965
34.26	15.204
34.48	12.432
34.7	9.607
34.92	4.817
35.14	38.558
35.36	18.213
35.58	66.89
35.8	102.896
36.02	11.617
36.24	5.983
36.46	2.876
36.68	0.613
36.9	9.88
37.12	9.625
37.34	4.234
37.56	5.677
37.78	15.727
38	7.786
38.22	4.837
38.44	7.035
38.66	10.234
38.88	13.819
39.1	10.743
39.32	37.695
39.54	0.587
39.76	12.135
39.98	7.72
40.2	9.963
40.42	3.269
40.64	5.596
40.86	16.036
41.08	25.728
41.3	12.575
41.52	2.568
41.74	9.658
41.96	13.555
42.18	8.354
42.4	41.367
42.62	5.959
42.84	9.997
43.06	23.472
43.28	4.459
43.5	2.267
43.72	12.09
43.94	0.046
44.16	13.759
44.38	15.532
44.6	27.025
44.82	9.413
45.04	18.493
45.26	30.255
45.48	2.421
45.7	1.755
45.92	4.14
46.14	12.755
46.36	9.658
46.58	5.127
46.8	4.535
47.02	10.676
47.24	8.044
47.46	10.536
47.68	9.834
47.9	4.976
48.12	0.931
48.34	3.189
48.56	4.398
48.78	9.072
49	5.692
49.22	4.572
49.44	8.245
49.66	10.601
49.88	18.422
50.1	7.89
50.32	6.716
50.54	4.482
50.76	8.435
50.98	4.768
51.2	0.856
51.42	0.038
51.64	10.222
51.86	8.923
52.08	8.11
52.3	13.183
52.52	13.387
52.74	5.652
52.96	0.214
53.18	15.07
53.4	8.989
53.62	2.99
53.84	6.937
54.06	4.497
54.28	4.296
54.5	6.148
54.72	10.338
54.94	11.601
55.16	13.495
55.38	9.074
55.6	0.822
55.82	8.747
56.04	3.683
56.26	0.584
56.48	8.124
56.7	53.076
56.92	19.096
57.14	19.665
57.36	5.422
57.58	5.635
57.8	6.553
58.02	1.377
58.24	8.194
58.46	5.08
58.68	5.311
58.9	6.534
59.12	13.235
59.34	6.088
59.56	4.7
59.78	25.237
60	5.876
60.22	1.417
60.44	14.656
60.66	7.615
60.88	15.466
61.1	14.812
61.32	8.986
61.54	9.963
61.76	15.776
61.98	7.182
62.2	3.687
62.42	5.19
62.64	9.63
62.86	2.728
63.08	12.311
63.3	1.767
63.52	6.974
63.74	7.955
63.96	8.148
64.18	8.576
64.4	13.58
64.62	1.012
64.84	2.587
65.06	14.217
65.28	4.037
65.5	11.437
65.72	15.363
65.94	19.571
66.16	6.666
66.38	23.498
66.6	9.35
66.82	5.115
67.04	1.471
67.26	5.847
67.48	0.328
67.7	1.028
67.92	1.621
68.14	7.115
68.36	9.38
68.58	7.795
68.8	9.969
69.02	8.321
69.24	6.835
69.46	6.838
69.68	0.333
69.9	13.276
70.12	12.006
70.34	4.328
70.56	1.983
70.78	22.755
71	15.409
71.22	1.254
71.44	21.046
71.66	17.385
71.88	11.329
72.1	6.598
72.32	6.596
72.54	0.592
72.76	2.578
72.98	5.172
73.2	10.174
73.42	14.152
73.64	9.316
73.86	20.027
74.08	5.561
74.3	0.435
74.52	0.318
74.74	6.847
74.96	10.942
75.18	4.971
75.4	6.157
75.62	7.034
75.84	11.229
76.06	4.248
76.28	3.306
76.5	21.642
76.72	8.905
76.94	0.468
77.16	0.602
77.38	4.795
77.6	3.162
77.82	9.253
78.04	1.54
78.26	3.086
78.48	11.175
78.7	5.575
78.92	6.625
79.14	9.744
79.36	9.991
79.58	11.778
79.8	16.674
80.02	14.395
80.24	7.415
80.46	9.173
80.68	0.625
80.9	4.626
81.12	6.353
81.34	8.155
81.56	8.025
81.78	3.348
82	2.445
82.22	6.791
82.44	18.027
82.66	8.897
82.88	0.128
83.1	7.802
83.32	2.54
83.54	3.385
83.76	11.309
83.98	6.208
84.2	10.804
84.42	0.21
84.64	9.378
84.86	2.198
85.08	11.215
85.3	6.423
85.52	4.56
85.74	6.65
85.96	0.918
86.18	8.292
86.4	6.53
86.62	7.629
86.84	8.797
87.06	4.964
87.28	3.019
87.5	1.158
87.72	0.132
87.94	8.112
88.16	10.16
88.38	5.86
88.6	7.665
88.82	5.806
89.04	8.632
89.26	16.752
89.48	9.736
89.7	7.22
89.92	3.817
