Measurement: Powder, Xray Data XY Processed
Mineral: Diopside
Rruff sample: R060276
Ideal chemistry: CaMgSi_2_O_6_
Locality: Inagli, Yakutia, Siberia, Russia
Source: Herb Obodda
Description: Transparent green cleavage fragment
Diffraction sample description: Powder
Measured chemistry: (Ca_0.97_Na_0.03_)_Σ=1_(Mg_0.96_Fe_0.03_Cr_0.01_)_Σ=1_(Si_1.98_Al_0.02_)_Σ=2_O_6_
Cell parameters: a: 9.7505(7) b: 8.9255(5) c: 5.2543(4) alpha: 90 beta: 105.907(9) gamma: 90 volume: 439.76(4) crystal system: monoclinic
x	intensity
5	0
5.22	6.085
5.44	0.211
5.66	11.212
5.88	9.259
6.1	0.607
6.32	12.578
6.54	10.991
6.76	8.854
6.98	12.398
7.2	4.389
7.42	2.675
7.64	8.513
7.86	10.377
8.08	14.177
8.3	2.983
8.52	1.718
8.74	0.553
8.96	8.24
9.18	5.509
9.4	9.794
9.62	4.069
9.84	10.119
10.06	3.551
10.28	0.232
10.5	7.822
10.72	0.024
10.94	1.413
11.16	0.373
11.38	0.294
11.6	12.357
11.82	11.422
12.04	7.566
12.26	10.716
12.48	2.914
12.7	10.762
12.92	6.164
13.14	1.391
13.36	3.339
13.58	2.541
13.8	9.738
14.02	6.842
14.24	6.885
14.46	3.119
14.68	7.016
14.9	8.038
15.12	2.468
15.34	2.529
15.56	2.631
15.78	4.778
16	10.985
16.22	5.019
16.44	5.157
16.66	6.214
16.88	0.065
17.1	3.332
17.32	8.26
17.54	1.138
17.76	5.091
17.98	6.073
18.2	4.07
18.42	5.856
18.64	4.843
18.86	3.664
19.08	5.642
19.3	6.607
19.52	3.405
19.74	3.454
19.96	11.452
20.18	6.499
20.4	6.373
20.62	4.691
20.84	4.755
21.06	1.936
21.28	8.108
21.5	8.213
21.72	0.657
21.94	7.403
22.16	10.491
22.38	3.505
22.6	5.635
22.82	6.853
23.04	10.802
23.26	2.776
23.48	4.583
23.7	2.517
23.92	0.41
24.14	6.309
24.36	9.326
24.58	4.091
24.8	4.014
25.02	0.277
25.24	0.624
25.46	1.92
25.68	1.681
25.9	1.568
26.12	6.374
26.34	4.231
26.56	12.163
26.78	12.997
27	11.072
27.22	5.522
27.44	8.304
27.66	79.371
27.88	13.258
28.1	6.059
28.32	1.382
28.54	6.076
28.76	3.405
28.98	2.659
29.2	3.834
29.42	1.901
29.64	17.858
29.86	217.452
30.08	24.898
30.3	102.086
30.52	13.12
30.74	7.128
30.96	72.812
31.18	7.444
31.4	0.729
31.62	7.154
31.84	0.008
32.06	1.817
32.28	0.552
32.5	11.115
32.72	4.578
32.94	5.705
33.16	1.184
33.38	5.916
33.6	4.029
33.82	6.63
34.04	1.311
34.26	1.905
34.48	0.47
34.7	2.165
34.92	35.053
35.14	19.603
35.36	10.613
35.58	77.234
35.8	77.69
36.02	11.905
36.24	5.374
36.46	1.749
36.68	5.122
36.9	1.611
37.12	6.835
37.34	1.029
37.56	9.129
37.78	5.119
38	4.64
38.22	3.353
38.44	7.075
38.66	6.078
38.88	8.109
39.1	21.152
39.32	18.364
39.54	5.039
39.76	0.207
39.98	3.618
40.2	5.495
40.42	3.298
40.64	10.765
40.86	12.385
41.08	15.979
41.3	1.541
41.52	4.177
41.74	5.317
41.96	29.452
42.18	9.577
42.4	67.591
42.62	15.727
42.84	9.67
43.06	16.435
43.28	0.513
43.5	3.543
43.72	1.604
43.94	4.622
44.16	5.679
44.38	61.885
44.6	8.981
44.82	12.194
45.04	18.864
45.26	14.219
45.48	0.557
45.7	5.983
45.92	4.315
46.14	2.756
46.36	2.128
46.58	1.783
46.8	9.293
47.02	3.456
47.24	1.52
47.46	0.841
47.68	0.247
47.9	4.742
48.12	7.392
48.34	2.473
48.56	3.177
48.78	1.963
49	3.298
49.22	0.026
49.44	4.742
49.66	27.781
49.88	8.5
50.1	2.754
50.32	11.978
50.54	6.125
50.76	7.044
50.98	4.154
51.2	0.25
51.42	3.319
51.64	3.355
51.86	6.837
52.08	20.766
52.3	27.586
52.52	8.641
52.74	2.616
52.96	1.756
53.18	4.147
53.4	5.251
53.62	4.515
53.84	0.6
54.06	10.581
54.28	4.154
54.5	3.127
54.72	8.289
54.94	13.173
55.16	3.961
55.38	11.616
55.6	0.973
55.82	2.882
56.04	2.51
56.26	5.516
56.48	15.431
56.7	34.472
56.92	17.549
57.14	17.283
57.36	8.314
57.58	4.352
57.8	2.331
58.02	2.328
58.24	0.465
58.46	4.585
58.68	8.335
58.9	1.214
59.12	15.568
59.34	5.569
59.56	10.445
59.78	5.13
60	4.283
60.22	3.292
60.44	5.953
60.66	9.824
60.88	5.698
61.1	6.65
61.32	4.617
61.54	10.163
61.76	18.333
61.98	10.502
62.2	7.73
62.42	16.625
62.64	3.791
62.86	1.103
63.08	4.688
63.3	3.823
63.52	1.904
63.74	3.284
63.96	5.597
64.18	2.15
64.4	7.946
64.62	7.658
64.84	5.368
65.06	9.134
65.28	0.708
65.5	11.152
65.72	23.37
65.94	10.581
66.16	9.168
66.38	19.854
66.6	10.057
66.82	3.574
67.04	2.953
67.26	3.203
67.48	7.65
67.7	9.082
67.92	3.557
68.14	12.789
68.36	4.826
68.58	7.288
68.8	5.408
69.02	8.416
69.24	1.204
69.46	3.111
69.68	3.008
69.9	1.691
70.12	1.453
70.34	4.041
70.56	2.709
70.78	23.62
71	23.613
71.22	4.653
71.44	6.912
71.66	9.885
71.88	9.985
72.1	2.071
72.32	0.17
72.54	0.757
72.76	6.282
72.98	0.314
73.2	0.575
73.42	11.589
73.64	3.588
73.86	19.309
74.08	6.261
74.3	17.098
74.52	6.055
74.74	6.282
74.96	8.212
75.18	7.371
75.4	12.37
75.62	1.071
75.84	2.742
76.06	3.642
76.28	16.896
76.5	10.161
76.72	3.255
76.94	2.409
77.16	13.293
77.38	4.255
77.6	0.349
77.82	0.588
78.04	6.715
78.26	6.884
78.48	4.921
78.7	12.827
78.92	9.771
79.14	5.787
79.36	13.686
79.58	1.152
79.8	4.205
80.02	6.356
80.24	7.386
80.46	7.187
80.68	1.906
80.9	5.136
81.12	9.048
81.34	2.038
81.56	5.082
81.78	5.137
82	1.697
82.22	5.634
82.44	5.892
82.66	7.919
82.88	0.973
83.1	4.994
83.32	0.009
83.54	6.153
83.76	4.305
83.98	9.304
84.2	1.27
84.42	1.572
84.64	2.596
84.86	3.469
85.08	0.455
85.3	2.49
85.52	6.479
85.74	0.542
85.96	5.367
86.18	3.362
86.4	3.442
86.62	9.195
86.84	10.389
87.06	5.188
87.28	2.238
87.5	1.3
87.72	8.317
87.94	3.531
88.16	9.625
88.38	6.544
88.6	4.71
88.82	2.719
89.04	7.712
89.26	10.948
89.48	4.778
89.7	2.058
89.92	0.113
