Measurement: Powder, Xray Data XY Processed
Mineral: Dioptase
Rruff sample: R050010
Ideal chemistry: Cu^2+^SiO_3_H_2_O
Locality: Tsumeb mine, Tsumeb, Otavi District, Oshikoto, Namibia
Source: Eugene Schlepp
Description: Bluish green single crystals
Diffraction sample description: Powder
Measured chemistry: Cu_1.00_Si_1.00_O_3_Â·H_2_O ; trace amounts of Mg and Al; OH estimated by difference
Cell parameters: a: 14.5759(3) b: 14.5759(3) c: 7.7821(2) alpha: 90. beta: 90. gamma: 120. volume: 1431.87(6) crystal system: hexagonal
x	intensity
5	0
5.22	8.292
5.44	15.563
5.66	23.161
5.88	3.664
6.1	1.898
6.32	12.785
6.54	13.132
6.76	1.569
6.98	13.329
7.2	8.569
7.42	20.102
7.64	14.031
7.86	30.056
8.08	31.837
8.3	19.126
8.52	3.338
8.74	1.582
8.96	13.087
9.18	22.368
9.4	24.814
9.62	28.267
9.84	26.779
10.06	22.329
10.28	19.697
10.5	3.879
10.72	16.663
10.94	22.982
11.16	32.231
11.38	15.961
11.6	8.819
11.82	38.471
12.04	70.514
12.26	465.075
12.48	24.084
12.7	3.957
12.92	10.87
13.14	2.02
13.36	46.492
13.58	3.884
13.8	22.269
14.02	9.457
14.24	14.249
14.46	11.51
14.68	20.105
14.9	25.511
15.12	18.242
15.34	22.421
15.56	19.396
15.78	14.226
16	15.636
16.22	14.936
16.44	23.692
16.66	12.411
16.88	15.083
17.1	3.374
17.32	27.784
17.54	11.488
17.76	32.35
17.98	32.284
18.2	488.413
18.42	12.576
18.64	0.501
18.86	4.76
19.08	16.868
19.3	13.362
19.52	27.546
19.74	28.02
19.96	14.434
20.18	15.094
20.4	13.815
20.62	17.169
20.84	11.715
21.06	5.728
21.28	20.675
21.5	16.095
21.72	24.351
21.94	553.947
22.16	25.751
22.38	11.927
22.6	19.085
22.82	4.2
23.04	6.448
23.26	5.705
23.48	10.52
23.7	13.905
23.92	57.316
24.14	41.154
24.36	14.196
24.58	35.055
24.8	4.202
25.02	20.896
25.24	1.084
25.46	18.221
25.68	0.786
25.9	1.222
26.12	27.751
26.34	8.295
26.56	16.276
26.78	16.771
27	109.52
27.22	1.575
27.44	9.864
27.66	9.487
27.88	29.574
28.1	66.074
28.32	10.13
28.54	17.637
28.76	14.866
28.98	4.294
29.2	7.855
29.42	15.658
29.64	118.338
29.86	20.028
30.08	15.767
30.3	31.876
30.52	17.739
30.74	12.84
30.96	21.114
31.18	28.257
31.4	36.262
31.62	27.214
31.84	9.093
32.06	18.816
32.28	2.27
32.5	96.714
32.72	35.343
32.94	38.774
33.16	96.547
33.38	13.585
33.6	8.359
33.82	11.194
34.04	23.915
34.26	8.325
34.48	1437.48
34.7	105.201
34.92	35.165
35.14	12.844
35.36	9.844
35.58	20.404
35.8	2.902
36.02	4.551
36.24	8.773
36.46	10.106
36.68	31.788
36.9	407.717
37.12	23.576
37.34	18.441
37.56	111.974
37.78	12.331
38	3.229
38.22	19.658
38.44	24.856
38.66	5.023
38.88	35.957
39.1	2.147
39.32	23.596
39.54	283.221
39.76	23.97
39.98	5.41
40.2	1.893
40.42	8.268
40.64	8.35
40.86	82.546
41.08	38.694
41.3	16.232
41.52	77.747
41.74	6.971
41.96	6.115
42.18	4.336
42.4	12.798
42.62	37.732
42.84	306.161
43.06	32.734
43.28	11.383
43.5	8.47
43.72	9.569
43.94	13.761
44.16	8.911
44.38	5.231
44.6	116.33
44.82	88.444
45.04	39.869
45.26	26.786
45.48	1.629
45.7	22.255
45.92	12.776
46.14	21.318
46.36	74.55
46.58	14.505
46.8	24.148
47.02	14.033
47.24	18.518
47.46	3.467
47.68	15.442
47.9	25.28
48.12	0.919
48.34	47.307
48.56	15.191
48.78	8.807
49	16.422
49.22	0.148
49.44	7.893
49.66	9.776
49.88	29.258
50.1	22.448
50.32	7.337
50.54	6.282
50.76	20.854
50.98	4.905
51.2	5.446
51.42	9.248
51.64	12.478
51.86	15.641
52.08	84.623
52.3	33.51
52.52	32.63
52.74	18.208
52.96	21.217
53.18	28.731
53.4	13.41
53.62	33.545
53.84	60.757
54.06	201.641
54.28	19.295
54.5	5.09
54.72	3.382
54.94	24.174
55.16	6.618
55.38	6.754
55.6	10.314
55.82	1.963
56.04	21.874
56.26	90.104
56.48	32.254
56.7	10.842
56.92	45.467
57.14	29.104
57.36	13.905
57.58	24.012
57.8	63.612
58.02	58.712
58.24	5.62
58.46	22.621
58.68	12.789
58.9	14.649
59.12	11.791
59.34	11.909
59.56	0.616
59.78	5.658
60	35.632
60.22	16.619
60.44	8.209
60.66	2.552
60.88	5.746
61.1	10.25
61.32	26.003
61.54	123.874
61.76	12.737
61.98	13.481
62.2	53.944
62.42	75.543
62.64	18.891
62.86	16.97
63.08	11.854
63.3	13.259
63.52	17.097
63.74	5.109
63.96	30.994
64.18	86.519
64.4	32.692
64.62	0.579
64.84	9.608
65.06	10.863
65.28	13.353
65.5	9.334
65.72	63.08
65.94	10.726
66.16	20.633
66.38	14.179
66.6	36.248
66.82	19.385
67.04	42.383
67.26	25.19
67.48	18.855
67.7	11.134
67.92	18.462
68.14	15.72
68.36	4.753
68.58	46.536
68.8	22.819
69.02	21.428
69.24	75.021
69.46	74.581
69.68	13.869
69.9	9.303
70.12	6.845
70.34	21.586
70.56	41.032
70.78	2.749
71	10.483
71.22	3.452
71.44	33.675
71.66	2.243
71.88	28.656
72.1	2.581
72.32	19.957
72.54	40.683
72.76	32.718
72.98	16.36
73.2	11.066
73.42	18.957
73.64	0.345
73.86	34.979
74.08	29.433
74.3	62.349
74.52	55.709
74.74	9.198
74.96	0.64
75.18	2.809
75.4	0.351
75.62	6.303
75.84	14.983
76.06	15.021
76.28	0.358
76.5	27.556
76.72	23.791
76.94	32.675
77.16	19.103
77.38	24.294
77.6	8.267
77.82	18.415
78.04	12.91
78.26	6.291
78.48	18.48
78.7	27.796
78.92	28.866
79.14	32.093
79.36	47.419
79.58	3.678
79.8	25.75
80.02	13.651
80.24	7.437
80.46	5.928
80.68	38.566
80.9	7.063
81.12	20.599
81.34	17.553
81.56	4.579
81.78	23.809
82	10.219
82.22	16.223
82.44	14.961
82.66	17.18
82.88	14.045
83.1	16.193
83.32	27.947
83.54	12.395
83.76	17.056
83.98	21.764
84.2	31.049
84.42	20.323
84.64	15
84.86	19.009
85.08	14.356
85.3	14.474
85.52	7.824
85.74	19.359
85.96	13.291
86.18	20.539
86.4	17.849
86.62	18.867
86.84	27.329
87.06	16.647
87.28	16.429
87.5	33.063
87.72	16.041
87.94	28.854
88.16	14.135
88.38	13.017
88.6	15.397
88.82	14.952
89.04	25.168
89.26	1.111
89.48	22.54
89.7	15.677
89.92	9.971
