Measurement: Powder, Xray Data XY Processed
Mineral: Djurleite
Rruff sample: R070333
Ideal chemistry: Cu_31_S_16_
Locality: Cornwall, England
Source: Michael Scott
Description: Aggregate of black metallic prismatic crystals with bluish tarnish
Diffraction sample description: Powder, cell parameters are from single crystal
Measured chemistry: Cu_30.75_S_16_ = Cu_1.92_S
Cell parameters: a: 26.898(8) b: 15.752(5) c: 13.592(4) alpha: 90 beta: 90.27(1) gamma: 90 volume: 5759(3) crystal system: monoclinic
x	intensity
5	0
5.22	19.4741
5.44	20.4311
5.66	14.0207
5.88	26.7561
6.1	17.6811
6.32	60.7458
6.54	10.6362
6.76	26.4504
6.98	58.2242
7.2	17.8194
7.42	38.1787
7.64	16.1285
7.86	24.7242
8.08	31.5553
8.3	34.4886
8.52	31.3071
8.74	22.8976
8.96	28.3175
9.18	25.9085
9.4	9.48035
9.62	31.5174
9.84	39.0762
10.06	58.7654
10.28	7.54099
10.5	38.7159
10.72	68.7022
10.94	51.0154
11.16	5.68085
11.38	27.2419
11.6	14.1953
11.82	0.505066
12.04	53.0744
12.26	30.7621
12.48	2.73886
12.7	36.4635
12.92	45.9174
13.14	14.0383
13.36	38.9383
13.58	35.4704
13.8	61.614
14.02	38.0793
14.24	24.097
14.46	8.99091
14.68	44.2603
14.9	14.6479
15.12	5.82083
15.34	23.7357
15.56	36.5715
15.78	25.6767
16	0.485992
16.22	30.3584
16.44	44.3295
16.66	24.7489
16.88	29.6715
17.1	17.9722
17.32	41.8213
17.54	40.2233
17.76	59.3315
17.98	7.26697
18.2	15.4419
18.42	51.9429
18.64	46.6362
18.86	39.2072
19.08	59.5511
19.3	75.5691
19.52	38.8134
19.74	23.4803
19.96	25.9176
20.18	2.68338
20.4	36.1296
20.62	81.2067
20.84	0.306366
21.06	47.0817
21.28	13.395
21.5	38.3483
21.72	16.4684
21.94	43.532
22.16	10.3066
22.38	59.3449
22.6	38.6696
22.82	38.3301
23.04	27.0601
23.26	4.32721
23.48	89.866
23.7	85.1471
23.92	55.4941
24.14	53.5743
24.36	41.7443
24.58	27.8564
24.8	117.203
25.02	19.9711
25.24	14.684
25.46	22.5488
25.68	18.0017
25.9	20.5234
26.12	217.858
26.34	115.806
26.56	49.5136
26.78	43.7478
27	81.3888
27.22	23.7403
27.44	42.1853
27.66	25.097
27.88	88.3918
28.1	40.3308
28.32	16.1692
28.54	48.7332
28.76	2.82785
28.98	31.9565
29.2	91.1484
29.42	93.1689
29.64	68.3561
29.86	20.8071
30.08	74.5401
30.3	42.9765
30.52	36.9449
30.74	137.017
30.96	42.5434
31.18	28.6011
31.4	188.926
31.62	108.781
31.84	26.2289
32.06	19.6789
32.28	0.304901
32.5	54.3662
32.72	79.1319
32.94	77.5958
33.16	63.9666
33.38	84.8534
33.6	111.829
33.82	38.1012
34.04	12.0833
34.26	5.61188
34.48	4.70514
34.7	30.2498
34.92	82.7699
35.14	45.1011
35.36	74.6516
35.58	107.944
35.8	41.2079
36.02	57.1594
36.24	100.309
36.46	43.8612
36.68	24.4474
36.9	7.28537
37.12	121.856
37.34	288.98
37.56	558.534
37.78	215.944
38	2.95764
38.22	20.887
38.44	24.6864
38.66	81.0239
38.88	47.8301
39.1	62.4524
39.32	79.1058
39.54	50.7188
39.76	41.0863
39.98	49.8454
40.2	45.5381
40.42	66.2249
40.64	26.1497
40.86	67.8266
41.08	32.6804
41.3	7.59244
41.52	7.03296
41.74	6.73135
41.96	15.9332
42.18	38.5093
42.4	32.8127
42.62	37.632
42.84	43.8313
43.06	13.1763
43.28	10.0076
43.5	73.835
43.72	43.7386
43.94	30.1738
44.16	69.6098
44.38	30.103
44.6	47.7518
44.82	80.283
45.04	43.9094
45.26	53.8074
45.48	19.2792
45.7	67.1629
45.92	153.546
46.14	492.058
46.36	533.786
46.58	37.0379
46.8	31.3676
47.02	78.0841
47.24	51.7661
47.46	5.10452
47.68	31.9579
47.9	37.9794
48.12	96.2932
48.34	187.06
48.56	555.423
48.78	351.625
49	64.7447
49.22	14.498
49.44	19.1585
49.66	13.4064
49.88	0.449921
50.1	76.4561
50.32	9.14908
50.54	52.3062
50.76	32.2529
50.98	38.859
51.2	79.705
51.42	48.3073
51.64	93.3488
51.86	18.0101
52.08	44.8914
52.3	27.501
52.52	19.0178
52.74	10.1357
52.96	15.4383
53.18	50.1606
53.4	13.8506
53.62	71.7181
53.84	132.25
54.06	136.949
54.28	99.9686
54.5	119.478
54.72	77.298
54.94	33.5182
55.16	24.7929
55.38	71.1865
55.6	96.1814
55.82	71.4975
56.04	57.0592
56.26	37.1837
56.48	32.0847
56.7	32.5299
56.92	7.55878
57.14	43.3785
57.36	20.9265
57.58	51.4681
57.8	20.0781
58.02	14.5178
58.24	54.9529
58.46	81.7839
58.68	52.5161
58.9	30.8342
59.12	55.3361
59.34	61.2331
59.56	29.3148
59.78	59.2175
60	47.5149
60.22	43.7953
60.44	56.7881
60.66	20.8534
60.88	81.6491
61.1	111.567
61.32	45.0204
61.54	6.87534
61.76	41.2728
61.98	24.8767
62.2	28.6799
62.42	20.1981
62.64	34.507
62.86	50.2599
63.08	52.5467
63.3	39.5511
63.52	77.6039
63.74	13.9185
63.96	37.8698
64.18	24.3136
64.4	16.767
64.62	16.4409
64.84	6.29291
65.06	71.9364
65.28	55.6594
65.5	18.2309
65.72	48.7038
65.94	52.4235
66.16	49.4697
66.38	30.1642
66.6	33.4019
66.82	36.8162
67.04	26.1148
67.26	14.9421
67.48	19.8133
67.7	31.1144
67.92	23.2724
68.14	58.5031
68.36	36.9407
68.58	0.566254
68.8	21.9535
69.02	49.9708
69.24	60.2796
69.46	67.8526
69.68	26.1178
69.9	47.3481
70.12	23.2703
70.34	26.2549
70.56	15.2555
70.78	23.8807
71	68.6229
71.22	48.5132
71.44	2.88495
71.66	32.0908
71.88	47.42
72.1	18.3173
72.32	4.75272
72.54	10.9764
72.76	28.319
72.98	29.8972
73.2	2.97165
73.42	30.7426
73.64	73.7618
73.86	44.6201
74.08	72.2671
74.3	55.2806
74.52	89.7815
74.74	33.4516
74.96	44.6739
75.18	39.3722
75.4	4.69766
75.62	54.4964
75.84	1.99567
76.06	6.3367
76.28	6.64612
76.5	38.6907
76.72	27.3242
76.94	16.2941
77.16	25.3806
77.38	36.365
77.6	21.9621
77.82	25.1152
78.04	7.22595
78.26	28.7999
78.48	32.8846
78.7	41.2075
78.92	14.7109
79.14	0.565552
79.36	48.938
79.58	10.0913
79.8	58.1824
80.02	56.2156
80.24	19.3032
80.46	32.7807
80.68	11.1906
80.9	25.2631
81.12	6.12109
81.34	6.53424
81.56	42.1285
81.78	22.3735
82	26.329
82.22	44.4329
82.44	54.038
82.66	11.4496
82.88	46.2141
83.1	43.3445
83.32	4.84811
83.54	56.6299
83.76	5.60477
83.98	81.8507
84.2	34.5512
84.42	24.6042
84.64	51.5857
84.86	47.5616
85.08	28.189
85.3	80.2944
85.52	13.0691
85.74	68.985
85.96	45.2023
86.18	2.58206
86.4	43.7804
86.62	15.1374
86.84	23.0304
87.06	40.3157
87.28	31.6038
87.5	29.6057
87.72	47.4287
87.94	7.40064
88.16	5.47275
88.38	24.27
88.6	47.9923
88.82	9.37164
89.04	38.6744
89.26	5.60358
89.48	21.7405
89.7	42.916
89.92	48.8413
