Measurement: Powder, Xray Data XY Processed
Mineral: Dolomite
Rruff sample: R050129
Ideal chemistry: CaMg(CO_3_)_2_
Locality: Black Cloud mine, Leadville, Lake County, Colorado, USA
Source: Dave Bunk Minerals
Description: Aggregate of colorless to white rhombohedra
Diffraction sample description: Powder
Measured chemistry: Ca(Mg_0.62_Fe^2+^_0.33_Mn_0.05_)_Î£=1_(CO_3_)_2_ ; CO_2_ estimated by difference
Cell parameters: a: 4.8220(1) b: 4.8220(1) c: 16.0995(9) alpha: 90. beta: 90. gamma: 120. volume: 324.19(2) crystal system: hexagonal
x	intensity
5	0
5.22	15.471
5.44	10.789
5.66	20.157
5.88	16.437
6.1	25.325
6.32	32.528
6.54	23.165
6.76	37.165
6.98	23.804
7.2	29.6
7.42	9.464
7.64	15.389
7.86	9.31
8.08	11.974
8.3	17.296
8.52	22.289
8.74	15.009
8.96	18.286
9.18	23.946
9.4	15.48
9.62	6.697
9.84	13.155
10.06	25.608
10.28	17.077
10.5	5.179
10.72	0.26
10.94	11.063
11.16	11.296
11.38	7.416
11.6	21.97
11.82	3.021
12.04	0.166
12.26	19.395
12.48	16.389
12.7	9.949
12.92	0.765
13.14	26.804
13.36	2.857
13.58	17.89
13.8	19.763
14.02	0.327
14.24	0.085
14.46	13.249
14.68	3.139
14.9	11.087
15.12	10.26
15.34	13.717
15.56	7.276
15.78	21.286
16	8.58
16.22	12.616
16.44	9.637
16.66	4.013
16.88	7.968
17.1	27.467
17.32	6.021
17.54	15.758
17.76	8.979
17.98	7.834
18.2	22.347
18.42	14.369
18.64	1.351
18.86	9.267
19.08	18.027
19.3	7.894
19.52	10.486
19.74	10.426
19.96	25.364
20.18	18.26
20.4	8.767
20.62	12.614
20.84	5.425
21.06	10.221
21.28	8.818
21.5	2.067
21.72	16.072
21.94	17.909
22.16	19.851
22.38	4.807
22.6	6.914
22.82	7.755
23.04	14.908
23.26	14.108
23.48	17.184
23.7	6.204
23.92	16.39
24.14	29.118
24.36	14.396
24.58	18.386
24.8	13.456
25.02	3.02
25.24	9.884
25.46	21.214
25.68	16.968
25.9	4.86
26.12	17.387
26.34	14.41
26.56	18.039
26.78	2.959
27	23.231
27.22	10.31
27.44	6.152
27.66	15.585
27.88	61.484
28.1	10.474
28.32	7.701
28.54	15.107
28.76	6.191
28.98	4.24
29.2	16.057
29.42	12.622
29.64	3.882
29.86	21.463
30.08	3.799
30.3	7.872
30.52	34.091
30.74	170.038
30.96	2133.41
31.18	39.637
31.4	10.08
31.62	5.89
31.84	15.943
32.06	5.551
32.28	9.63
32.5	13.977
32.72	0.58
32.94	13.859
33.16	12.577
33.38	38.931
33.6	16.43
33.82	18.81
34.04	13.863
34.26	11.431
34.48	7.514
34.7	12.751
34.92	0.485
35.14	17.212
35.36	11.817
35.58	11.044
35.8	4.987
36.02	8.704
36.24	6.571
36.46	1.663
36.68	5.717
36.9	6.154
37.12	2.108
37.34	77.095
37.56	8.699
37.78	12.468
38	29.79
38.22	16.505
38.44	13.813
38.66	5.087
38.88	10.238
39.1	9.241
39.32	20.422
39.54	5.546
39.76	19.058
39.98	0.843
40.2	13.202
40.42	26.319
40.64	12.588
40.86	15.366
41.08	164.248
41.3	11.351
41.52	7.794
41.74	4.75
41.96	18.635
42.18	19.736
42.4	6.046
42.62	8.532
42.84	10.872
43.06	3.133
43.28	14.909
43.5	13.712
43.72	8.752
43.94	21.131
44.16	17.88
44.38	1.236
44.6	7.18
44.82	61.377
45.04	52.706
45.26	25.734
45.48	18.127
45.7	19.486
45.92	12.138
46.14	2.263
46.36	0.094
46.58	16.938
46.8	5.546
47.02	14.517
47.24	2.424
47.46	3.88
47.68	9.277
47.9	16.104
48.12	5.233
48.34	11.906
48.56	1.88
48.78	14.318
49	15.714
49.22	35.028
49.44	11.486
49.66	4.524
49.88	2.871
50.1	27.263
50.32	119.683
50.54	65.185
50.76	30.78
50.98	113.91
51.2	35.761
51.42	13.611
51.64	7.236
51.86	16.292
52.08	14.053
52.3	16.759
52.52	17.56
52.74	14.405
52.96	21.783
53.18	3.746
53.4	26.289
53.62	15.448
53.84	14.283
54.06	0.151
54.28	0.191
54.5	13.524
54.72	2.741
54.94	25.115
55.16	15.509
55.38	13.502
55.6	8.626
55.82	18.899
56.04	15.237
56.26	17.475
56.48	27.297
56.7	22.432
56.92	5.036
57.14	11.954
57.36	17.305
57.58	1.386
57.8	0.057
58.02	17.439
58.24	1.226
58.46	4.412
58.68	8.071
58.9	30.373
59.12	13.107
59.34	2.085
59.56	24.819
59.78	50.776
60	10.686
60.22	7.102
60.44	12.499
60.66	13.471
60.88	19.793
61.1	2.758
61.32	20.587
61.54	6.815
61.76	34.479
61.98	13.479
62.2	12.275
62.42	13.019
62.64	10.582
62.86	1.256
63.08	7.8
63.3	25.29
63.52	28.205
63.74	8.312
63.96	9.201
64.18	25.692
64.4	22.017
64.62	9.297
64.84	8.984
65.06	44.973
65.28	1.05
65.5	11.243
65.72	11.61
65.94	10.74
66.16	6.974
66.38	25.206
66.6	7.841
66.82	0.244
67.04	1.771
67.26	44.103
67.48	20.321
67.7	9.854
67.92	9.579
68.14	18.254
68.36	3.601
68.58	5.049
68.8	6.363
69.02	1.686
69.24	19.927
69.46	18.088
69.68	9.32
69.9	25.415
70.12	31.36
70.34	33.864
70.56	9.572
70.78	13.577
71	3.592
71.22	1.105
71.44	2.117
71.66	1.473
71.88	7.801
72.1	13.23
72.32	8.248
72.54	8.633
72.76	11.722
72.98	11.852
73.2	10.853
73.42	11.482
73.64	3.081
73.86	13.373
74.08	13.013
74.3	16.033
74.52	32.922
74.74	19.608
74.96	3.452
75.18	3.689
75.4	18.544
75.62	5.389
75.84	10.27
76.06	11.38
76.28	6.39
76.5	16.45
76.72	20.162
76.94	19.612
77.16	7.7
77.38	11.849
77.6	10.261
77.82	8.37
78.04	17.507
78.26	8.628
78.48	1.735
78.7	6.946
78.92	16.772
79.14	0.047
79.36	9.296
79.58	6.466
79.8	4.755
80.02	0.914
80.24	14.693
80.46	11.991
80.68	7.972
80.9	4.947
81.12	5.528
81.34	13.454
81.56	6.303
81.78	12.545
82	16.397
82.22	16.179
82.44	23.606
82.66	14.202
82.88	6.056
83.1	6.199
83.32	14.87
83.54	20.272
83.76	20.413
83.98	15.538
84.2	4.697
84.42	10.349
84.64	18.495
84.86	14.391
85.08	6.925
85.3	4.642
85.52	26.071
85.74	1.774
85.96	6.168
86.18	19.948
86.4	33.479
86.62	16.032
86.84	8.795
87.06	8.764
87.28	0.823
87.5	1.038
87.72	34.064
87.94	27.167
88.16	12.706
88.38	13.994
88.6	2.556
88.82	16.105
89.04	14.873
89.26	12.659
89.48	7.808
89.7	24.105
89.92	0.788
