Measurement: Powder, Xray Data XY Processed
Mineral: Dravite
Rruff sample: R060286
Ideal chemistry: NaMg_3_Al_6_(Si_6_O_18_)(BO_3_)_3_(OH)_3_OH
Locality: Badakshan Province, Afghanistan
Source: Herb Obodda
Description: Brown prismatic tourmaline crystal
Diffraction sample description: Powder
Measured chemistry: (Na_0.48_Ca_0.38_[box]_0.14_)_Σ=1_(Mg_2.90_Ti_0.10_)_Σ=3_Al_6.00_(B_1.00_O_3_)_3_(Si_5.56_B_0.44_)_Σ=6_O_18_(OH)_4_; (OH) assumed from stoichiometry; B estimated by difference and charge balance
Cell parameters: a: 15.9436(3) b: 15.9436(3) c: 7.2082(3) alpha: 90 beta: 90 gamma: 120 volume: 1586.84(7) crystal system: hexagonal
x	intensity
5	0
5.22	5.487
5.44	8.439
5.66	11.504
5.88	4.752
6.1	11.201
6.32	1.884
6.54	6.45
6.76	3.56
6.98	5.697
7.2	6.995
7.42	2.194
7.64	5.405
7.86	7.535
8.08	6.535
8.3	0.282
8.52	5.795
8.74	8.065
8.96	1.014
9.18	5.404
9.4	11.92
9.62	3.419
9.84	7.737
10.06	7.933
10.28	5.236
10.5	5.457
10.72	10.663
10.94	5.657
11.16	3.422
11.38	9.679
11.6	0.4
11.82	5.95
12.04	4.823
12.26	0.405
12.48	2.96
12.7	8.483
12.92	10.832
13.14	7.341
13.36	2.848
13.58	6.51
13.8	49.714
14.02	6.408
14.24	1.859
14.46	1.714
14.68	6.538
14.9	7.593
15.12	1.559
15.34	11.583
15.56	1.76
15.78	1.052
16	12.273
16.22	6.669
16.44	5.789
16.66	5.538
16.88	10.464
17.1	2.416
17.32	9.427
17.54	11.694
17.76	94.603
17.98	12.343
18.2	5.034
18.42	12.603
18.64	4.507
18.86	5.661
19.08	10.816
19.3	94.869
19.52	10.712
19.74	4.375
19.96	6.298
20.18	7.414
20.4	2.505
20.62	2.02
20.84	12.177
21.06	237.886
21.28	9.579
21.5	4.526
21.72	7.818
21.94	16.029
22.16	26.225
22.38	73.803
22.6	8.027
22.82	3.421
23.04	5.437
23.26	8.631
23.48	11.739
23.7	7.868
23.92	20.834
24.14	6.293
24.36	5.966
24.58	3.614
24.8	4.807
25.02	9.601
25.24	5.961
25.46	59.697
25.68	28.527
25.9	7.455
26.12	7.086
26.34	79.118
26.56	15.178
26.78	4.225
27	6.101
27.22	0.067
27.44	8.92
27.66	3.568
27.88	12.854
28.1	6.079
28.32	6.015
28.54	4.347
28.76	9.369
28.98	9.533
29.2	3.699
29.42	19.341
29.64	73.62
29.86	8.798
30.08	202.903
30.3	36.506
30.52	15.066
30.74	3.225
30.96	9.408
31.18	0.794
31.4	17.13
31.62	5.687
31.84	12.533
32.06	18.117
32.28	6.178
32.5	8.407
32.72	4.314
32.94	1.502
33.16	14.486
33.38	0.791
33.6	6.817
33.82	15.906
34.04	9.775
34.26	21.384
34.48	7.396
34.7	44.177
34.92	42.336
35.14	18.791
35.36	0.154
35.58	10.178
35.8	2.445
36.02	19.878
36.24	2.041
36.46	6.085
36.68	5.842
36.9	2.781
37.12	0.533
37.34	12.242
37.56	20.285
37.78	61.636
38	10.619
38.22	4.088
38.44	36.028
38.66	15.43
38.88	4.263
39.1	7.529
39.32	6.037
39.54	12.134
39.76	1.663
39.98	15.391
40.2	10.94
40.42	3.719
40.64	3.838
40.86	7.376
41.08	14.985
41.3	16.939
41.52	3.484
41.74	18.756
41.96	5.413
42.18	13.354
42.4	59.95
42.62	0.82
42.84	19.501
43.06	9.529
43.28	9.265
43.5	11.35
43.72	13.579
43.94	39.951
44.16	9.454
44.38	38.831
44.6	12.205
44.82	33.696
45.04	7.897
45.26	10.987
45.48	26.72
45.7	11.359
45.92	14.002
46.14	8.452
46.36	16.68
46.58	2.026
46.8	8.216
47.02	4.4
47.24	21.235
47.46	30.331
47.68	14.26
47.9	6.236
48.12	2.826
48.34	5.302
48.56	10.751
48.78	6.199
49	3.291
49.22	29.742
49.44	14.764
49.66	8.131
49.88	5.065
50.1	1.154
50.32	5.956
50.54	6.983
50.76	4.016
50.98	6.75
51.2	27.971
51.42	7.817
51.64	3.557
51.86	0.414
52.08	11.584
52.3	8.697
52.52	12.811
52.74	8.001
52.96	7.335
53.18	3.416
53.4	4.483
53.62	0.852
53.84	0.915
54.06	4.056
54.28	4.934
54.5	7.692
54.72	6.658
54.94	1.523
55.16	12.403
55.38	58.101
55.6	3.374
55.82	7.238
56.04	28.889
56.26	1.851
56.48	8.73
56.7	6.746
56.92	0.318
57.14	7.942
57.36	3.117
57.58	10.24
57.8	50.353
58.02	14.123
58.24	6.509
58.46	4.897
58.68	3.995
58.9	9.365
59.12	1.549
59.34	12.634
59.56	10.387
59.78	12.214
60	0.442
60.22	0.486
60.44	8.438
60.66	14.177
60.88	7.801
61.1	2.292
61.32	18.999
61.54	36.886
61.76	4.884
61.98	9.02
62.2	1.911
62.42	5.307
62.64	3.304
62.86	5.314
63.08	8.119
63.3	4.913
63.52	5.33
63.74	23.117
63.96	40.087
64.18	28.072
64.4	11.35
64.62	1.363
64.84	3.038
65.06	17.108
65.28	8.213
65.5	0.587
65.72	10.577
65.94	12.909
66.16	38.799
66.38	16.166
66.6	4.406
66.82	1.313
67.04	2.421
67.26	0.833
67.48	11.077
67.7	6.275
67.92	4.002
68.14	11.824
68.36	6.503
68.58	1.318
68.8	11.052
69.02	7.966
69.24	17.256
69.46	19.596
69.68	12.345
69.9	1.898
70.12	11.929
70.34	6.287
70.56	6.414
70.78	27.551
71	12.562
71.22	0.406
71.44	4.636
71.66	5.845
71.88	17.349
72.1	16.509
72.32	10.577
72.54	11.672
72.76	5.561
72.98	5.506
73.2	12.383
73.42	6.319
73.64	2.484
73.86	6.723
74.08	15.442
74.3	13.811
74.52	8.025
74.74	2.248
74.96	5.612
75.18	19.729
75.4	8.894
75.62	2.444
75.84	1.533
76.06	0.51
76.28	5.648
76.5	5.883
76.72	9.974
76.94	8.759
77.16	3.699
77.38	9.192
77.6	7.097
77.82	14.98
78.04	7.966
78.26	3.059
78.48	5.015
78.7	8.732
78.92	3.475
79.14	6.545
79.36	3.74
79.58	1.64
79.8	30.628
80.02	18.901
80.24	1.061
80.46	2.773
80.68	7.766
80.9	9.092
81.12	12.513
81.34	6.693
81.56	7.072
81.78	11.118
82	12.325
82.22	5.721
82.44	3.695
82.66	5.811
82.88	8.823
83.1	0.185
83.32	1.651
83.54	17.663
83.76	10.575
83.98	15.163
84.2	7.098
84.42	2.687
84.64	0.013
84.86	12.896
85.08	6.737
85.3	5.71
85.52	4.575
85.74	2.369
85.96	11.143
86.18	6.116
86.4	12.05
86.62	1.907
86.84	2.821
87.06	8.842
87.28	13.636
87.5	3.781
87.72	1.052
87.94	3.074
88.16	3.132
88.38	15.091
88.6	4.015
88.82	4.183
89.04	12.103
89.26	12.354
89.48	10.831
89.7	11.854
89.92	9.952
