Measurement: Powder, Xray Data XY Processed
Mineral: Dravite
Rruff sample: R050059
Ideal chemistry: NaMg_3_Al_6_(Si_6_O_18_)(BO_3_)_3_(OH)_3_OH
Locality: Nepal
Source: Rock Currier
Description: Dark brown single crystal
Diffraction sample description: Powder
Measured chemistry: (Na_0.79_[box]_0.16_Ca_0.05_)_Σ=1_(Mg_2.44_Al_0.29_[box]_0.14_Fe^2+^_0.08_Ti_0.05_)_Σ=3_Al_6.00_(BO_3_)_3_Si_6.00_O_18_(OH)_4_ ; H_2_O assumed ideal from stoichiometry; B_2_O_3_ estimated by difference
Cell parameters: a: 15.9243(3) b: 15.9243(3) c: 7.1916(2) alpha: 90. beta: 90. gamma: 120. volume: 1579.36(5) crystal system: hexagonal
x	intensity
5	0
5.22	11.67
5.44	10.029
5.66	7.051
5.88	19.622
6.1	9.98
6.32	9.619
6.54	8.644
6.76	12.619
6.98	17.304
7.2	14.905
7.42	4.409
7.64	3.675
7.86	8.31
8.08	11.155
8.3	5.826
8.52	5.221
8.74	5.595
8.96	7.819
9.18	11.188
9.4	6.836
9.62	2.363
9.84	11.802
10.06	14.094
10.28	4.624
10.5	2.148
10.72	1.936
10.94	9.167
11.16	47.67
11.38	18.664
11.6	14.357
11.82	10.971
12.04	9.498
12.26	6.252
12.48	14.006
12.7	2.132
12.92	8.412
13.14	7.238
13.36	0.966
13.58	9.764
13.8	13.674
14.02	29.791
14.24	6.861
14.46	9.241
14.68	2.611
14.9	9.88
15.12	8.408
15.34	1.858
15.56	1.84
15.78	1.482
16	0.413
16.22	6.737
16.44	8.771
16.66	2.83
16.88	8.622
17.1	0.442
17.32	8.491
17.54	9.526
17.76	22.817
17.98	16.997
18.2	5.932
18.42	5.092
18.64	3.447
18.86	6.552
19.08	3.533
19.3	37.527
19.52	2.249
19.74	5.081
19.96	3.479
20.18	16.97
20.4	0.572
20.62	10.825
20.84	15.382
21.06	325.062
21.28	28.977
21.5	3.065
21.72	5.035
21.94	3.18
22.16	7.44
22.38	587.915
22.6	4.476
22.82	15.223
23.04	5.266
23.26	2.446
23.48	0.307
23.7	3.848
23.92	0.181
24.14	9.679
24.36	10.432
24.58	1.944
24.8	12.488
25.02	3.011
25.24	7.109
25.46	10.809
25.68	440.28
25.9	15.193
26.12	9.139
26.34	11.642
26.56	8.219
26.78	7.931
27	10.399
27.22	14.232
27.44	1.36
27.66	2.619
27.88	7.977
28.1	18.17
28.32	7.223
28.54	0.948
28.76	24.187
28.98	5.265
29.2	0.336
29.42	1.035
29.64	12.443
29.86	6.013
30.08	40.27
30.3	520.517
30.52	9.549
30.74	1.24
30.96	21.35
31.18	3.822
31.4	11.247
31.62	5.959
31.84	2.389
32.06	9.169
32.28	9.644
32.5	5.992
32.72	1.588
32.94	1.781
33.16	5.519
33.38	9.13
33.6	12.85
33.82	9.573
34.04	14.024
34.26	68.67
34.48	7.487
34.7	34.245
34.92	239.928
35.14	39.566
35.36	2.755
35.58	5.742
35.8	0.193
36.02	4.856
36.24	4.019
36.46	1.135
36.68	16.554
36.9	3.057
37.12	2.879
37.34	1.391
37.56	195.6
37.78	24.204
38	64.646
38.22	7.673
38.44	96.227
38.66	2.679
38.88	5.098
39.1	7.14
39.32	25.515
39.54	4.385
39.76	5.773
39.98	12.848
40.2	4.426
40.42	2.372
40.64	1.989
40.86	7.386
41.08	5.272
41.3	80.085
41.52	3.104
41.74	19.74
41.96	4.105
42.18	1.624
42.4	2.459
42.62	54.731
42.84	38.537
43.06	2.696
43.28	7.107
43.5	14.307
43.72	4.199
43.94	6.146
44.16	60.169
44.38	99.981
44.6	72.489
44.82	0.494
45.04	28.889
45.26	2.593
45.48	5.338
45.7	11.918
45.92	0.484
46.14	2.956
46.36	9.141
46.58	7.212
46.8	6.204
47.02	10.81
47.24	18.802
47.46	91.799
47.68	16.456
47.9	14.406
48.12	2.255
48.34	8.816
48.56	57.08
48.78	10.277
49	4.59
49.22	5.777
49.44	29.996
49.66	6.424
49.88	6.869
50.1	5.265
50.32	5.011
50.54	8.423
50.76	2.955
50.98	5.153
51.2	30.305
51.42	37.706
51.64	5.923
51.86	11.03
52.08	2.266
52.3	1.154
52.52	12.134
52.74	31.428
52.96	6.19
53.18	8.868
53.4	6.419
53.62	7.198
53.84	2.052
54.06	5.642
54.28	8.297
54.5	15.63
54.72	5.337
54.94	6.068
55.16	6.604
55.38	133.649
55.6	17.858
55.82	3.173
56.04	46.34
56.26	33.356
56.48	2.409
56.7	0.468
56.92	4.606
57.14	0.577
57.36	5.983
57.58	9.006
57.8	37.128
58.02	26.783
58.24	12.548
58.46	2.697
58.68	3.689
58.9	3.655
59.12	18.323
59.34	2.282
59.56	3.236
59.78	6.784
60	14.763
60.22	3.492
60.44	31.472
60.66	9.387
60.88	17.921
61.1	11.592
61.32	17.078
61.54	75.123
61.76	67.266
61.98	3.462
62.2	0.388
62.42	3.201
62.64	3.016
62.86	12.968
63.08	9.892
63.3	3.617
63.52	0.687
63.74	3.692
63.96	96.469
64.18	64.28
64.4	8.075
64.62	11.228
64.84	2.1
65.06	7.82
65.28	25.874
65.5	6.996
65.72	9.065
65.94	19.648
66.16	6.752
66.38	78.985
66.6	27.519
66.82	10.915
67.04	3.211
67.26	2.502
67.48	4.945
67.7	11.617
67.92	2.859
68.14	4.794
68.36	4.468
68.58	3.412
68.8	6.631
69.02	2.306
69.24	1.421
69.46	6.078
69.68	6.926
69.9	0.456
70.12	10.918
70.34	9.888
70.56	0.04
70.78	7.99
71	48.857
71.22	45.483
71.44	3.328
71.66	4.494
71.88	12.047
72.1	34.488
72.32	27.951
72.54	8.128
72.76	5.998
72.98	6.694
73.2	1.358
73.42	5.577
73.64	0.461
73.86	4.334
74.08	5.498
74.3	48.116
74.52	23.804
74.74	0.434
74.96	7.99
75.18	3.621
75.4	7.83
75.62	5.344
75.84	2.543
76.06	2.725
76.28	14.779
76.5	6.422
76.72	5.666
76.94	1.815
77.16	0.691
77.38	9.042
77.6	5.646
77.82	2.327
78.04	5.318
78.26	2.508
78.48	3.552
78.7	13.868
78.92	3.971
79.14	10.641
79.36	4.171
79.58	6.443
79.8	7.515
80.02	23.597
80.24	12.652
80.46	2.687
80.68	3.465
80.9	22.594
81.12	11.753
81.34	7.926
81.56	16.062
81.78	6.921
82	14.168
82.22	6.296
82.44	1.31
82.66	2.197
82.88	2.383
83.1	4.428
83.32	23.373
83.54	5.119
83.76	14.105
83.98	7.376
84.2	13.525
84.42	6.172
84.64	5.239
84.86	0.516
85.08	4.566
85.3	6.457
85.52	15.467
85.74	8.65
85.96	8.709
86.18	12.982
86.4	20.654
86.62	3.375
86.84	2.436
87.06	9.865
87.28	1.818
87.5	6.909
87.72	2.117
87.94	9.306
88.16	10.443
88.38	6.554
88.6	6.02
88.82	8.638
89.04	4.737
89.26	6.216
89.48	12.8
89.7	0.324
89.92	3.425
