Measurement: Powder, Xray Data XY Processed
Mineral: Duftite
Rruff sample: R050507
Ideal chemistry: Pb^2+^Cu^2+^As^5+^O_4_(OH)
Locality: Mt. Bonney, Northern Territory, Australia
Source: University of Arizona Mineral Museum
Description: Green aggregate of acicular crystals forming round wheel-like shapes, intimately mixed with mimetite
Diffraction sample description: Powder
Measured chemistry: Pb_1.00_Cu_1.00_As_1.00_O_4_(OH) ; = dark phase. The lght phase is mimetite: (Pb_4.95_Cu_0.05_)_Î£=5_(As_1.00_O_4_)_3_Cl_1.00_; OH estimated by charge balance
Cell parameters: a: 7.7678(3) b: 9.2166(3) c: 6.0000(2) alpha: 90. beta: 90. gamma: 90. volume: 429.57(1) crystal system: orthorhombic
x	intensity
5	0
5.22	2.30011
5.44	7.79643
5.66	2.98616
5.88	1.79711
6.1	4.64931
6.32	6.7392
6.54	8.62983
6.76	3.88712
6.98	7.10908
7.2	1.30837
7.42	1.39211
7.64	6.46227
7.86	1.19202
8.08	2.52478
8.3	1.83973
8.52	11.1661
8.74	11.3897
8.96	0.43939
9.18	3.42894
9.4	6.81376
9.62	3.60935
9.84	0.11756
10.06	2.07737
10.28	4.43304
10.5	9.30639
10.72	13.1012
10.94	1.03856
11.16	7.85159
11.38	5.90102
11.6	3.7334
11.82	5.47941
12.04	5.34041
12.26	1.21157
12.48	0.667687
12.7	3.34981
12.92	7.62451
13.14	9.82447
13.36	4.99274
13.58	1.8553
13.8	6.08006
14.02	4.5435
14.24	2.61162
14.46	1.86463
14.68	11.9939
14.9	7.09467
15.12	0.171359
15.34	0.264472
15.56	2.29707
15.78	0.019052
16	9.08783
16.22	0.93797
16.44	8.40275
16.66	7.16574
16.88	5.75616
17.1	5.24608
17.32	8.36993
17.54	13.5111
17.76	22.9674
17.98	9.64983
18.2	6.39788
18.42	2.27966
18.64	12.5729
18.86	6.4546
19.08	6.22734
19.3	72.0773
19.52	7.89062
19.74	2.30575
19.96	7.73771
20.18	11.5809
20.4	4.39354
20.62	4.51571
20.84	2.37618
21.06	87.8279
21.28	8.83598
21.5	0.995435
21.72	11.1478
21.94	0.399896
22.16	5.92064
22.38	15.4347
22.6	15.5639
22.82	4.64184
23.04	7.67004
23.26	0.015971
23.48	7.81219
23.7	8.66193
23.92	15.4584
24.14	4.47805
24.36	18.0367
24.58	5.50418
24.8	5.82966
25.02	19.4643
25.24	5.61232
25.46	4.79397
25.68	8.21727
25.9	4.52613
26.12	9.04716
26.34	2.55088
26.56	8.72108
26.78	15.5295
27	46.4264
27.22	32.1009
27.44	226.543
27.66	18.1298
27.88	10.0176
28.1	5.50209
28.32	5.92281
28.54	1.41021
28.76	2.94754
28.98	12.504
29.2	41.993
29.42	13.3172
29.64	46.9033
29.86	98.0291
30.08	30.6511
30.3	34.9595
30.52	12.1261
30.74	2.81455
30.96	5.45064
31.18	16.4908
31.4	147.715
31.62	4.33115
31.84	1.04136
32.06	2.94349
32.28	7.19345
32.5	8.33623
32.72	2.70142
32.94	6.60521
33.16	1.96217
33.38	11.3632
33.6	61.8013
33.82	87.1049
34.04	2.90626
34.26	2.72887
34.48	8.53673
34.7	16.6057
34.92	95.855
35.14	7.13236
35.36	15.5034
35.58	7.55874
35.8	47.8608
36.02	23.3272
36.24	4.6986
36.46	2.95309
36.68	6.20639
36.9	7.35669
37.12	1.31993
37.34	21.5057
37.56	8.63479
37.78	15.6303
38	16.8432
38.22	5.85865
38.44	0.753252
38.66	11.3268
38.88	9.18507
39.1	22.9398
39.32	36.9079
39.54	10.3184
39.76	6.21997
39.98	18.2932
40.2	9.39804
40.42	8.73775
40.64	2.10476
40.86	18.4596
41.08	2.15227
41.3	9.31238
41.52	1.6414
41.74	1.18367
41.96	11.8386
42.18	5.70275
42.4	6.49019
42.62	19.001
42.84	42.7504
43.06	10.3073
43.28	3.08297
43.5	15.975
43.72	38.1541
43.94	19.75
44.16	4.05281
44.38	12.912
44.6	2.5652
44.82	2.11704
45.04	1.16124
45.26	11.3476
45.48	1.80133
45.7	18.0211
45.92	12.0926
46.14	15.4769
46.36	12.0283
46.58	6.54581
46.8	28.2092
47.02	22.0032
47.24	1.97071
47.46	4.92788
47.68	3.02254
47.9	15.3033
48.12	25.7934
48.34	29.5874
48.56	35.7868
48.78	9.79238
49	8.69045
49.22	3.27152
49.44	7.64408
49.66	0.43239
49.88	33.1358
50.1	11.8863
50.32	19.5605
50.54	16.1045
50.76	2.61699
50.98	13.9032
51.2	33.3104
51.42	25.0573
51.64	5.42171
51.86	16.3638
52.08	14.1448
52.3	12.0062
52.52	16.833
52.74	10.0121
52.96	2.64886
53.18	11.5721
53.4	8.78657
53.62	9.53823
53.84	6.43109
54.06	2.6236
54.28	0.569128
54.5	1.5888
54.72	11.7331
54.94	1.17697
55.16	11.7957
55.38	24.9289
55.6	71.9249
55.82	40.2308
56.04	13.7068
56.26	18.3822
56.48	21.162
56.7	19.7413
56.92	3.3551
57.14	15.4392
57.36	2.8952
57.58	15.4929
57.8	13.8423
58.02	4.44852
58.24	9.10094
58.46	20.6776
58.68	2.36755
58.9	6.41235
59.12	5.34473
59.34	14.2182
59.56	0.967106
59.78	13.4094
60	14.0348
60.22	36.9646
60.44	13.5688
60.66	5.74512
60.88	14.5397
61.1	1.53112
61.32	1.50123
61.54	3.48309
61.76	16.731
61.98	24.9193
62.2	14.7162
62.42	11.9975
62.64	20.855
62.86	0.624187
63.08	8.44562
63.3	11.7256
63.52	10.38
63.74	15.9204
63.96	17.2547
64.18	11.2944
64.4	21.4861
64.62	7.63135
64.84	4.62608
65.06	5.80124
65.28	10.5615
65.5	16.1356
65.72	7.88852
65.94	6.83204
66.16	3.27652
66.38	11.6454
66.6	10.0425
66.82	1.23891
67.04	1.61359
67.26	21.4524
67.48	16.96
67.7	8.89757
67.92	4.3021
68.14	13.3349
68.36	10.198
68.58	1.19651
68.8	1.20835
69.02	4.28403
69.24	6.41523
69.46	6.44512
69.68	12.4219
69.9	12.4156
70.12	11.549
70.34	25.3763
70.56	20.8275
70.78	7.33717
71	26.8978
71.22	8.9107
71.44	0.668259
71.66	0.291872
71.88	0.261641
72.1	5.11208
72.32	11.5764
72.54	14.7043
72.76	10.2319
72.98	6.02846
73.2	9.93491
73.42	5.69096
73.64	17.1283
73.86	18.7793
74.08	9.2533
74.3	8.80693
74.52	1.20997
74.74	3.80002
74.96	7.17152
75.18	28.3966
75.4	13.4045
75.62	24.3738
75.84	12.4976
76.06	0.691711
76.28	3.88257
76.5	13.5735
76.72	1.96462
76.94	1.31387
77.16	8.06525
77.38	3.64497
77.6	3.36575
77.82	2.47235
78.04	5.48176
78.26	4.24599
78.48	12.5626
78.7	12.2118
78.92	8.91275
79.14	5.35665
79.36	5.65077
79.58	11.282
79.8	8.03835
80.02	1.87013
80.24	9.62543
80.46	17.6916
80.68	4.73883
80.9	8.03413
81.12	6.449
81.34	18.776
81.56	7.62471
81.78	4.83351
82	12.0405
82.22	6.35622
82.44	8.41958
82.66	15.8461
82.88	4.85927
83.1	23.7812
83.32	10.4969
83.54	6.57484
83.76	3.21154
83.98	10.2885
84.2	14.0617
84.42	20.9052
84.64	2.64411
84.86	2.7378
85.08	12.034
85.3	14.5241
85.52	7.16197
85.74	8.44028
85.96	5.22696
86.18	8.29081
86.4	0.284184
86.62	2.79962
86.84	12.0395
87.06	17.8394
87.28	3.62267
87.5	17.038
87.72	5.61516
87.94	9.2111
88.16	4.7523
88.38	13.0952
88.6	10.4614
88.82	7.93451
89.04	17.654
89.26	5.63003
89.48	10.6973
89.7	3.96485
89.92	6.253
