Measurement: Powder, Xray Data XY Processed
Mineral: Eakerite
Rruff sample: R060319
Ideal chemistry: Ca_2_Sn^4+^Al_2_Si_6_O_18_(OH)_2_2H_2_O
Locality: Foote Mineral Company mine, Kings Mountain, North Carolina, USA
Source: Michael Scott
Description: Transparent colorless bladed single crystals
Diffraction sample description: Single crystal, powder profile is calculated
Measured chemistry: Ca_2.00_Sn^4+^_1.00_Al_2.00_Si_6_O_18_(OH)_2_Â·2H_2_O
Cell parameters: a: 15.825(3) b: 7.698(1) c: 7.445(1) alpha: 90 beta: 101.292(5) gamma: 90 volume: 889.4(5) crystal system: monoclinic
x	intensity
5	0
5.22	0
5.44	0
5.66	0
5.88	0
6.1	0
6.32	0
6.54	0
6.76	0
6.98	0
7.2	0
7.42	0
7.64	0
7.86	0
8.08	0
8.3	0
8.52	0
8.74	0
8.96	0
9.18	0
9.4	0
9.62	0
9.84	0
10.06	0
10.28	0
10.5	0
10.72	0
10.94	0
11.16	0
11.38	14.75
11.6	0
11.82	0
12.04	2.212
12.26	0.003
12.48	0
12.7	0.001
12.92	1.134
13.14	0
13.36	0
13.58	0
13.8	0
14.02	0
14.24	0
14.46	0
14.68	0
14.9	2.406
15.12	0
15.34	0
15.56	0
15.78	0
16	0
16.22	3.715
16.44	0
16.66	0.055
16.88	38.053
17.1	0
17.32	0
17.54	0
17.76	0
17.98	0
18.2	3.448
18.42	67.075
18.64	0
18.86	0
19.08	0
19.3	0
19.52	0
19.74	0
19.96	0
20.18	0
20.4	0
20.62	0.399
20.84	0
21.06	0
21.28	0
21.5	0
21.72	0
21.94	0
22.16	0.666
22.38	0.031
22.6	0
22.82	0.563
23.04	0.439
23.26	0
23.48	0
23.7	0.127
23.92	0.277
24.14	0
24.36	0.413
24.58	0
24.8	1.231
25.02	0
25.24	0
25.46	0
25.68	4.929
25.9	0.515
26.12	3.879
26.34	1.584
26.56	21.722
26.78	0.007
27	1.2
27.22	0.011
27.44	2.651
27.66	14.829
27.88	0
28.1	0.249
28.32	0
28.54	0.229
28.76	0.453
28.98	1.535
29.2	0
29.42	1.145
29.64	17.579
29.86	0
30.08	0.226
30.3	0.006
30.52	0.496
30.74	0
30.96	0.039
31.18	0.326
31.4	0.05
31.62	0
31.84	0
32.06	0
32.28	1.052
32.5	0.117
32.72	1.813
32.94	0.003
33.16	0
33.38	1.079
33.6	0.161
33.82	0.323
34.04	0.015
34.26	4.082
34.48	3.767
34.7	4.363
34.92	0.001
35.14	0.155
35.36	0.166
35.58	7.526
35.8	0.002
36.02	7.248
36.24	0.002
36.46	0.613
36.68	1.202
36.9	3.078
37.12	1.375
37.34	3.684
37.56	0.035
37.78	0
38	0.471
38.22	3.136
38.44	2.835
38.66	0.019
38.88	1.213
39.1	8.214
39.32	0.836
39.54	0.035
39.76	2.111
39.98	1.013
40.2	2.389
40.42	0.419
40.64	0
40.86	0.016
41.08	4.831
41.3	0.008
41.52	1.194
41.74	0.016
41.96	1.712
42.18	1.813
42.4	1.267
42.62	0.04
42.84	0.868
43.06	0.808
43.28	0.05
43.5	5.09
43.72	1.223
43.94	0.023
44.16	0.973
44.38	0
44.6	1.918
44.82	2.867
45.04	1.201
45.26	0.003
45.48	0.645
45.7	0.228
45.92	2.573
46.14	0.807
46.36	1.79
46.58	1.145
46.8	3.017
47.02	0.091
47.24	0.997
47.46	1.814
47.68	1.778
47.9	0.711
48.12	0.024
48.34	1.204
48.56	4.147
48.78	0.481
49	0.517
49.22	0.141
49.44	0.008
49.66	0.602
49.88	1.244
50.1	3.886
50.32	0.318
50.54	2.042
50.76	0.238
50.98	1.553
51.2	1.332
51.42	0.772
51.64	0.004
51.86	0.057
52.08	0.41
52.3	2.354
52.52	0.323
52.74	0.541
52.96	5.64
53.18	1.166
53.4	0.158
53.62	0.725
53.84	0.929
54.06	0.65
54.28	0.939
54.5	2.825
54.72	1.753
54.94	1.87
55.16	0.375
55.38	0.792
55.6	2.619
55.82	0.783
56.04	0.12
56.26	0.49
56.48	0.833
56.7	1.602
56.92	1.205
57.14	1.515
57.36	0.309
57.58	2.822
57.8	0.515
58.02	0.135
58.24	1.502
58.46	0.701
58.68	0.54
58.9	0.004
59.12	0.284
59.34	0.352
59.56	0.637
59.78	0.863
60	1.317
60.22	0.962
60.44	0.045
60.66	0.004
60.88	0.037
61.1	0.351
61.32	0.728
61.54	1.566
61.76	0.487
61.98	0.29
62.2	0.835
62.42	0.349
62.64	0.208
62.86	0.154
63.08	0.503
63.3	4.008
63.52	2.392
63.74	3.251
63.96	2.46
64.18	2.201
64.4	1.507
64.62	0.302
64.84	0.09
65.06	0.31
65.28	3.006
65.5	0.889
65.72	0.657
65.94	0.133
66.16	0.322
66.38	0.319
66.6	0.825
66.82	0.209
67.04	0.209
67.26	0.59
67.48	0.728
67.7	1.053
67.92	0.481
68.14	0.153
68.36	0.078
68.58	0.337
68.8	1.066
69.02	0.421
69.24	0.033
69.46	0.518
69.68	0.316
69.9	0.169
70.12	0.272
70.34	0.499
70.56	1.59
70.78	0.768
71	0.645
71.22	0.205
71.44	1.193
71.66	0.602
71.88	0.268
72.1	0.258
72.32	0.38
72.54	0.691
72.76	0.532
72.98	0.787
73.2	0.457
73.42	0.031
73.64	0.119
73.86	0.384
74.08	0.197
74.3	0.689
74.52	0.687
74.74	0.724
74.96	0.595
75.18	1.087
75.4	0.449
75.62	0.491
75.84	0.623
76.06	0.225
76.28	1.123
76.5	0.602
76.72	0.185
76.94	0.212
77.16	0.064
77.38	0.657
77.6	0.325
77.82	0.293
78.04	0.788
78.26	0.586
78.48	0.587
78.7	0.447
78.92	0.112
79.14	0.08
79.36	0.253
79.58	0.131
79.8	0.352
80.02	0.278
80.24	0.071
80.46	0.316
80.68	0.215
80.9	0.655
81.12	0.356
81.34	0.147
81.56	0.099
81.78	0.212
82	0.807
82.22	0.214
82.44	0.014
82.66	0.012
82.88	0.127
83.1	0.229
83.32	0.898
83.54	0.797
83.76	0.754
83.98	1.022
84.2	0.565
84.42	0.458
84.64	0.006
84.86	0.086
85.08	0.434
85.3	0.172
85.52	0.581
85.74	0.298
85.96	0.073
86.18	0.246
86.4	0.784
86.62	0.26
86.84	0.362
87.06	0.702
87.28	1.26
87.5	0.984
87.72	0.425
87.94	0.336
88.16	0.037
88.38	0.064
88.6	0.398
88.82	0.602
89.04	0.67
89.26	0.274
89.48	0.236
89.7	0.544
89.92	0.499
