Measurement: Powder, Xray Data XY Processed
Mineral: Edenite
Rruff sample: R050415
Ideal chemistry: NaCa_2_Mg_5_(Si_7_Al)O_22_(OH)_2_
Locality: Mogok, Burma
Source: Marcus Origlieri
Description: Transparent pale green water worn fragment
Diffraction sample description: Powder
Measured chemistry: (Na_0.83_K_0.17_)(Ca_1.76_Na_0.24_)_=2_(Mg_4.54_Al_0.40_Fe^3+^_0.06_)_=5_(Si_6.74_Al_1.26_)O_22_((OH)_0.52_F_0.48_)_2_
Cell parameters: a: 9.8784(3) b: 17.9756(9) c: 5.2832(4) alpha: 90. beta: 105.104(4) gamma: 90. volume: 905.74(7) crystal system: monoclinic
x	intensity
5	0
5.22	1.191
5.44	4.671
5.66	1.703
5.88	4.489
6.1	12.588
6.32	7.936
6.54	5.983
6.76	8.69
6.98	6.341
7.2	3.314
7.42	0.156
7.64	12.112
7.86	0.394
8.08	7.294
8.3	8.62
8.52	8.047
8.74	13.133
8.96	8.313
9.18	8.99
9.4	7.351
9.62	9.127
9.84	38.096
10.06	10.259
10.28	12.623
10.5	111.898
10.72	8.456
10.94	5.497
11.16	3.811
11.38	11.047
11.6	3.455
11.82	2.84
12.04	6.06
12.26	7.283
12.48	4.581
12.7	9.609
12.92	1.59
13.14	6.485
13.36	13.683
13.58	10.835
13.8	2.066
14.02	5.985
14.24	3.344
14.46	11.642
14.68	4.86
14.9	7.892
15.12	2.818
15.34	2.629
15.56	4.55
15.78	8.639
16	8.594
16.22	3.637
16.44	12.771
16.66	3.581
16.88	8.621
17.1	0.438
17.32	2.318
17.54	11.252
17.76	6.122
17.98	9.129
18.2	53.085
18.42	3.143
18.64	6.976
18.86	0.81
19.08	2.735
19.3	1.433
19.52	3.612
19.74	17.666
19.96	11.667
20.18	7.807
20.4	7.714
20.62	4.951
20.84	6.043
21.06	18.209
21.28	7.385
21.5	1.4
21.72	2.555
21.94	8.251
22.16	4.424
22.38	19.808
22.6	8.9
22.82	20.243
23.04	27.993
23.26	4.939
23.48	2.604
23.7	2.129
23.92	3.283
24.14	14.264
24.36	1.966
24.58	13.007
24.8	22.552
25.02	2.434
25.24	5.743
25.46	16.985
25.68	0.571
25.9	0.395
26.12	2.497
26.34	8.364
26.56	78.345
26.78	7.687
27	4.387
27.22	22.334
27.44	18.856
27.66	11.001
27.88	1.837
28.1	6.242
28.32	18.259
28.54	367.273
28.76	20.843
28.98	5.17
29.2	9.005
29.42	19.459
29.64	2.594
29.86	11.284
30.08	0.811
30.3	6.949
30.52	207.86
30.74	9.863
30.96	3.295
31.18	16.472
31.4	4.961
31.62	2.723
31.84	24.575
32.06	13.439
32.28	6.831
32.5	3.349
32.72	102.157
32.94	16.485
33.16	29.039
33.38	42.421
33.6	12.389
33.82	0.65
34.04	0.843
34.26	3.988
34.48	0.938
34.7	59.388
34.92	22.444
35.14	7.065
35.36	157.958
35.58	13.671
35.8	12.003
36.02	5.393
36.24	12.461
36.46	5.614
36.68	9.692
36.9	8.649
37.12	3.85
37.34	9.803
37.56	1.409
37.78	45.423
38	9.754
38.22	1.307
38.44	45.013
38.66	62.783
38.88	0.132
39.1	8.012
39.32	49.649
39.54	35.537
39.76	6.767
39.98	7.103
40.2	13.227
40.42	3.788
40.64	7.435
40.86	21.548
41.08	8.084
41.3	11.449
41.52	6.748
41.74	11.589
41.96	73.653
42.18	21.7
42.4	9.669
42.62	13.694
42.84	0.524
43.06	12.301
43.28	0.965
43.5	5.368
43.72	11.702
43.94	1.124
44.16	0.563
44.38	13.146
44.6	25.902
44.82	26.763
45.04	38.098
45.26	8.277
45.48	12.273
45.7	0.56
45.92	1.046
46.14	2.473
46.36	11.885
46.58	22.787
46.8	17.05
47.02	10.226
47.24	6.249
47.46	0.656
47.68	3.53
47.9	20.363
48.12	20.157
48.34	7.777
48.56	8.675
48.78	7.431
49	39.859
49.22	7.702
49.44	22.592
49.66	10.78
49.88	4.877
50.1	4.106
50.32	10.856
50.54	6.276
50.76	6.073
50.98	5.332
51.2	1.581
51.42	2.045
51.64	0.391
51.86	13.044
52.08	7.62
52.3	3.115
52.52	0.08
52.74	5.858
52.96	1.214
53.18	14.316
53.4	3.145
53.62	7.889
53.84	9.563
54.06	7.759
54.28	13.413
54.5	34.095
54.72	7.551
54.94	12.286
55.16	3.12
55.38	4.219
55.6	10.284
55.82	655.169
56.04	25.119
56.26	71.174
56.48	10.879
56.7	0.16
56.92	2.815
57.14	15.797
57.36	19.8
57.58	5.928
57.8	3.115
58.02	26.02
58.24	7.994
58.46	11.145
58.68	17.187
58.9	0.885
59.12	0.418
59.34	2.692
59.56	19.96
59.78	14.478
60	21.411
60.22	22.138
60.44	5.007
60.66	8.12
60.88	6.066
61.1	3.007
61.32	24.349
61.54	12.983
61.76	11.868
61.98	35.566
62.2	3.377
62.42	5.369
62.64	5.637
62.86	1.664
63.08	5.56
63.3	4.651
63.52	12.536
63.74	0.267
63.96	5.708
64.18	3.627
64.4	3.915
64.62	81.219
64.84	114.41
65.06	9.751
65.28	4.954
65.5	7.323
65.72	6.553
65.94	12.956
66.16	1.417
66.38	3.932
66.6	9.55
66.82	3.765
67.04	7.058
67.26	0.025
67.48	2.963
67.7	3.994
67.92	6.977
68.14	1.879
68.36	0.746
68.58	6.419
68.8	20.576
69.02	33.363
69.24	6.906
69.46	12.206
69.68	0.888
69.9	5.557
70.12	3.186
70.34	7.834
70.56	11.837
70.78	18.525
71	13.178
71.22	5.629
71.44	0.399
71.66	14.81
71.88	30.82
72.1	12.875
72.32	9.976
72.54	9.473
72.76	2.075
72.98	4.904
73.2	2.081
73.42	8.298
73.64	4.402
73.86	9.472
74.08	6.35
74.3	8.719
74.52	6.199
74.74	16.915
74.96	3.175
75.18	3.085
75.4	8.626
75.62	7.963
75.84	2.717
76.06	4.492
76.28	4.75
76.5	3.976
76.72	7.151
76.94	2.274
77.16	10.897
77.38	9.765
77.6	1.281
77.82	8.503
78.04	13.677
78.26	1.72
78.48	7.701
78.7	6.478
78.92	15.194
79.14	2.916
79.36	3.551
79.58	2.438
79.8	5.203
80.02	27.463
80.24	9.469
80.46	6.292
80.68	4.3
80.9	5.565
81.12	0.811
81.34	1.952
81.56	10.1
81.78	4.256
82	2.507
82.22	17.569
82.44	5.34
82.66	8.577
82.88	9.704
83.1	3.682
83.32	5.514
83.54	0.559
83.76	2.615
83.98	5.713
84.2	3.933
84.42	0.849
84.64	0.08
84.86	6.109
85.08	2.959
85.3	5.784
85.52	0.55
85.74	1.458
85.96	3.583
86.18	4.41
86.4	18.342
86.62	8.076
86.84	4.165
87.06	2.16
87.28	3.304
87.5	7.41
87.72	10.788
87.94	1.994
88.16	7.061
88.38	0.683
88.6	10.597
88.82	6.861
89.04	6.98
89.26	10.297
89.48	16.26
89.7	10.198
89.92	7.153
