Measurement: Powder, Xray Data XY Processed
Mineral: Edingtonite
Rruff sample: R040003
Ideal chemistry: Ba(Si_3_Al_2_)O_10_4H_2_O
Locality: Bohl, Sweden
Source: University of Arizona Mineral Museum
Description: Colorless tetragonal prism
Diffraction sample description: Powder
Measured chemistry: Ba_1.00_(Si_3.00_Al_2.00_)O_10_Â·4H_2_O; trace amounts of Na; H_2_O estimated by difference
Cell parameters: a: 9.5275(4) b: 9.6432(3) c: 6.5115(8) alpha: 90. beta: 90. gamma: 90. volume: 598.25(6) crystal system: orthorhombic
x	intensity
5	0
5.22	7.676
5.44	14.419
5.66	10.023
5.88	1.769
6.1	2.466
6.32	3.22
6.54	8.98
6.76	13.973
6.98	10.146
7.2	5.904
7.42	14.117
7.64	5.301
7.86	4.611
8.08	5.954
8.3	2.283
8.52	3.542
8.74	2.888
8.96	8.353
9.18	1.613
9.4	4.849
9.62	4.746
9.84	6.847
10.06	4.044
10.28	1.265
10.5	2.343
10.72	2.676
10.94	3.737
11.16	1.804
11.38	2.564
11.6	4.472
11.82	9.229
12.04	0.17
12.26	6.059
12.48	4.721
12.7	0.551
12.92	2.559
13.14	23.364
13.36	8.306
13.58	14.679
13.8	5.94
14.02	1.218
14.24	0.583
14.46	8.417
14.68	9.534
14.9	2.792
15.12	4.96
15.34	15.089
15.56	7.129
15.78	2.943
16	8.842
16.22	7.974
16.44	6.302
16.66	15.365
16.88	1.242
17.1	14.146
17.32	3.046
17.54	0.794
17.76	1.712
17.98	2.625
18.2	4.575
18.42	72.619
18.64	24.606
18.86	15.4
19.08	10.317
19.3	0.748
19.52	3.032
19.74	1.211
19.96	2.38
20.18	3.831
20.4	3.223
20.62	3.346
20.84	24.407
21.06	3.033
21.28	0.926
21.5	6.217
21.72	8.021
21.94	0.841
22.16	0.215
22.38	0.923
22.6	6.814
22.82	8.704
23.04	14.666
23.26	4.763
23.48	6.685
23.7	4.629
23.92	7.342
24.14	8.253
24.36	6.252
24.58	3.394
24.8	24.519
25.02	249.348
25.24	8.222
25.46	1.25
25.68	1.213
25.9	9.431
26.12	1.735
26.34	33.816
26.56	6.928
26.78	9.783
27	0.035
27.22	4.034
27.44	29.05
27.66	5.088
27.88	6.96
28.1	1.711
28.32	5.456
28.54	5.031
28.76	0.135
28.98	7.957
29.2	8.758
29.42	32.291
29.64	29.394
29.86	88.679
30.08	11.491
30.3	5.536
30.52	66.725
30.74	8.974
30.96	0.769
31.18	4.491
31.4	4.893
31.62	6.501
31.84	5.091
32.06	3.477
32.28	7.897
32.5	331.54
32.72	56.116
32.94	65.869
33.16	6.656
33.38	7.863
33.6	11.989
33.82	49.206
34.04	1.191
34.26	0.423
34.48	2.812
34.7	83.169
34.92	9.613
35.14	5.976
35.36	2.979
35.58	6.22
35.8	0.566
36.02	2.666
36.24	0.857
36.46	5.722
36.68	16.001
36.9	3.367
37.12	8.229
37.34	9.349
37.56	0.572
37.78	10.504
38	2.639
38.22	6.426
38.44	2.35
38.66	9.255
38.88	0.129
39.1	2.775
39.32	7.32
39.54	35.712
39.76	8.591
39.98	109.351
40.2	6.351
40.42	2.131
40.64	13.145
40.86	1.151
41.08	60.123
41.3	5.143
41.52	42
41.74	8.014
41.96	0.007
42.18	26.229
42.4	75.656
42.62	10.638
42.84	3.764
43.06	4.864
43.28	7.932
43.5	5.04
43.72	3.097
43.94	17.216
44.16	12.652
44.38	25.543
44.6	5.378
44.82	18.113
45.04	2.325
45.26	4.615
45.48	2.74
45.7	1.818
45.92	8.779
46.14	4.778
46.36	4.824
46.58	4.461
46.8	3.143
47.02	154.033
47.24	3.94
47.46	3.916
47.68	12.827
47.9	5.002
48.12	5.796
48.34	24.744
48.56	5.645
48.78	11.467
49	10.356
49.22	8.326
49.44	6.752
49.66	40.872
49.88	26.554
50.1	8.321
50.32	26.986
50.54	5.134
50.76	2.728
50.98	27.641
51.2	4.094
51.42	3.278
51.64	16.729
51.86	2.913
52.08	3.079
52.3	0.362
52.52	4.054
52.74	7.258
52.96	2.548
53.18	13.629
53.4	3.484
53.62	1.196
53.84	9.12
54.06	5.14
54.28	9.547
54.5	3.229
54.72	13.467
54.94	5.185
55.16	2.931
55.38	18.548
55.6	76.331
55.82	14.171
56.04	5.207
56.26	2.26
56.48	0.825
56.7	7.282
56.92	0.486
57.14	4.701
57.36	20.878
57.58	3.441
57.8	4.825
58.02	19.069
58.24	9.173
58.46	2.156
58.68	1.022
58.9	4.963
59.12	8.058
59.34	1.335
59.56	10.251
59.78	2.104
60	3.728
60.22	0.549
60.44	3.332
60.66	8.272
60.88	88.385
61.1	8.376
61.32	3.642
61.54	136.535
61.76	22.579
61.98	4.701
62.2	1.165
62.42	1.925
62.64	2.053
62.86	9.17
63.08	1.507
63.3	11.76
63.52	11.681
63.74	7.467
63.96	8.345
64.18	2.171
64.4	0.808
64.62	4.184
64.84	19.283
65.06	13.355
65.28	3.404
65.5	8.577
65.72	6.257
65.94	5.32
66.16	3.445
66.38	5.478
66.6	2.052
66.82	27.042
67.04	2.998
67.26	6.889
67.48	1.919
67.7	2.064
67.92	1.511
68.14	8.419
68.36	12.363
68.58	6.39
68.8	2.232
69.02	16.775
69.24	6.174
69.46	3.979
69.68	7.725
69.9	7.293
70.12	1.836
70.34	1.381
70.56	26.468
70.78	17.334
71	13.884
71.22	11.146
71.44	27.804
71.66	16.219
71.88	3.271
72.1	11.472
72.32	3.761
72.54	8.517
72.76	1.791
72.98	39.086
73.2	22.361
73.42	3.039
73.64	5.105
73.86	10.365
74.08	7.676
74.3	1.043
74.52	9.107
74.74	3.057
74.96	12.035
75.18	8.257
75.4	5.251
75.62	4.096
75.84	2.229
76.06	6.51
76.28	0.523
76.5	6.29
76.72	8.116
76.94	6.958
77.16	0.924
77.38	14.943
77.6	7.96
77.82	6.919
78.04	7.298
78.26	4.44
78.48	5.509
78.7	4.647
78.92	11.779
79.14	3.91
79.36	3.973
79.58	5.008
79.8	6.054
80.02	0.982
80.24	13.096
80.46	8.124
80.68	0.166
80.9	0.08
81.12	4.039
81.34	6.019
81.56	2.962
81.78	4.941
82	3.768
82.22	2.714
82.44	2.798
82.66	8.671
82.88	5.413
83.1	8.37
83.32	2.363
83.54	2.415
83.76	6.433
83.98	0.188
84.2	17.835
84.42	11.813
84.64	2.793
84.86	6.821
85.08	1.867
85.3	3.789
85.52	7.924
85.74	2.836
85.96	6.654
86.18	2.52
86.4	4.122
86.62	4.013
86.84	9.898
87.06	2.804
87.28	0.689
87.5	3.783
87.72	5.942
87.94	9.959
88.16	8.108
88.38	2.346
88.6	5.514
88.82	5.632
89.04	5.978
89.26	4.151
89.48	13.26
89.7	4.163
89.92	4.131
