Measurement: Powder, Xray Data XY Processed
Mineral: Edingtonite
Rruff sample: R040110
Ideal chemistry: Ba(Si_3_Al_2_)O_10_4H_2_O
Locality: 2350 level, Brunswick 12 mine, Bathhurst, New Brunswick, Canada
Source: National Museums of Canada
Description: Colorless rectangular prism
Diffraction sample description: Powder
Measured chemistry: Ba_1.00_(Si_3.00_Al_2.00_)O_10_Â·4H_2_O
Cell parameters: a: 9.5290(3) b: 9.6449(2) c: 6.5103(7) alpha: 90. beta: 90. gamma: 90. volume: 598.34(6) crystal system: orthorhombic
x	intensity
5	0
5.22	12.2296
5.44	4.80107
5.66	5.26987
5.88	10.2919
6.1	18.3614
6.32	8.15294
6.54	3.28712
6.76	13.604
6.98	11.0659
7.2	7.84124
7.42	2.30003
7.64	0.562659
7.86	9.98525
8.08	3.19757
8.3	4.61606
8.52	1.97779
8.74	9.40782
8.96	7.85502
9.18	12.4775
9.4	12.577
9.62	15.8133
9.84	0.976078
10.06	0.199544
10.28	1.51798
10.5	1.70154
10.72	7.06881
10.94	5.12913
11.16	13.0652
11.38	0.832074
11.6	3.55919
11.82	7.52375
12.04	3.06349
12.26	6.08074
12.48	9.96105
12.7	9.03968
12.92	3.96409
13.14	15.9357
13.36	3.04207
13.58	46.0384
13.8	7.86873
14.02	10.9388
14.24	0.933331
14.46	1.10242
14.68	6.16099
14.9	8.30012
15.12	1.62935
15.34	1.37799
15.56	5.25049
15.78	7.2251
16	8.5952
16.22	6.17596
16.44	94.5532
16.66	12.5366
16.88	9.18514
17.1	0.152218
17.32	2.0741
17.54	1.53735
17.76	2.30528
17.98	13.0912
18.2	8.06822
18.42	968.689
18.64	246.223
18.86	47.0847
19.08	15.322
19.3	13.6171
19.52	2.76045
19.74	1.98014
19.96	0.250904
20.18	12.5732
20.4	0.992956
20.62	25.3218
20.84	44.746
21.06	9.80876
21.28	4.92441
21.5	0.807379
21.72	2.29567
21.94	6.44495
22.16	0.45173
22.38	10.7911
22.6	1.13024
22.82	9.7963
23.04	9.83186
23.26	1.70864
23.48	10.4249
23.7	3.30526
23.92	0.922521
24.14	7.67677
24.36	2.76833
24.58	6.60206
24.8	231.638
25.02	108.528
25.24	7.14997
25.46	4.07156
25.68	0.004696
25.9	0.289787
26.12	3.46046
26.34	94.5706
26.56	12.0221
26.78	1.12677
27	2.8282
27.22	5.2848
27.44	16.8616
27.66	7.9048
27.88	1.88841
28.1	7.83838
28.32	7.50407
28.54	1.31103
28.76	4.1541
28.98	29.9009
29.2	8.65525
29.42	62.4142
29.64	142.695
29.86	10.2686
30.08	6.25363
30.3	4.28034
30.52	27.5712
30.74	8.7959
30.96	2.87651
31.18	2.97889
31.4	3.70497
31.62	3.51754
31.84	0.381023
32.06	2.82131
32.28	14.7487
32.5	96.6881
32.72	250.51
32.94	9.25502
33.16	4.13561
33.38	2.16312
33.6	9.11902
33.82	22.2324
34.04	9.53755
34.26	3.03473
34.48	8.37245
34.7	29.4124
34.92	5.61502
35.14	3.21106
35.36	4.09972
35.58	5.26935
35.8	1.52408
36.02	7.87119
36.24	5.94538
36.46	14.9378
36.68	23.6552
36.9	3.55286
37.12	0.324146
37.34	6.5732
37.56	4.48714
37.78	7.40526
38	0.713215
38.22	9.3672
38.44	4.92104
38.66	5.70701
38.88	4.34997
39.1	2.08906
39.32	12.8773
39.54	19.4935
39.76	9.52896
39.98	148.878
40.2	5.03212
40.42	9.72342
40.64	1.27736
40.86	0.307771
41.08	16.7226
41.3	5.85825
41.52	31.9979
41.74	11.2433
41.96	69.3679
42.18	8.11396
42.4	39.6047
42.62	6.57159
42.84	10.825
43.06	3.71368
43.28	1.95421
43.5	0.888319
43.72	1.2127
43.94	14.5092
44.16	22.3712
44.38	15.0323
44.6	11.5093
44.82	10.3542
45.04	1.47707
45.26	3.77667
45.48	0.911177
45.7	6.07776
45.92	7.04701
46.14	3.13269
46.36	8.84559
46.58	3.96512
46.8	1.58203
47.02	12.1715
47.24	8.92644
47.46	4.79692
47.68	3.49194
47.9	21.2633
48.12	14.0181
48.34	10.8517
48.56	1.60742
48.78	2.50909
49	3.97085
49.22	9.95521
49.44	24.6874
49.66	49.9311
49.88	33.8893
50.1	3.79606
50.32	7.08492
50.54	5.31202
50.76	13.7094
50.98	4.22501
51.2	16.4801
51.42	0.905235
51.64	8.2
51.86	26.9016
52.08	6.04163
52.3	6.18064
52.52	6.13055
52.74	7.42178
52.96	7.48806
53.18	3.44218
53.4	3.31103
53.62	5.16606
53.84	1.60875
54.06	6.78011
54.28	24.3823
54.5	1.21569
54.72	2.03262
54.94	3.83589
55.16	0.474555
55.38	17.2088
55.6	19.8767
55.82	8.60791
56.04	13.4196
56.26	36.874
56.48	5.42735
56.7	0.312664
56.92	6.66974
57.14	1.68681
57.36	10.7418
57.58	5.06045
57.8	12.6203
58.02	19.819
58.24	23.9956
58.46	1.05648
58.68	0.72689
58.9	17.7431
59.12	7.76539
59.34	15.8682
59.56	7.03564
59.78	6.05287
60	5.73251
60.22	17.7513
60.44	2.78246
60.66	4.73085
60.88	13.7844
61.1	3.54929
61.32	2.98819
61.54	11.0179
61.76	6.13021
61.98	2.3535
62.2	4.49565
62.42	1.33924
62.64	7.42206
62.86	3.50237
63.08	1.89007
63.3	6.19905
63.52	8.10434
63.74	6.79396
63.96	5.79514
64.18	3.18527
64.4	1.27171
64.62	9.91943
64.84	6.02582
65.06	9.286
65.28	18.3113
65.5	10.0585
65.72	1.66721
65.94	0.353959
66.16	7.61909
66.38	4.56742
66.6	6.69959
66.82	5.52909
67.04	9.54239
67.26	27.6935
67.48	16.5068
67.7	4.39898
67.92	4.30162
68.14	0.234069
68.36	1.16861
68.58	6.05989
68.8	9.91662
69.02	10.2221
69.24	13.3201
69.46	15.9941
69.68	8.64814
69.9	4.34468
70.12	3.15629
70.34	0.012456
70.56	16.7369
70.78	13.7384
71	89.6217
71.22	24.4345
71.44	17.6498
71.66	12.4432
71.88	17.6622
72.1	10.0345
72.32	10.5348
72.54	5.76881
72.76	2.99635
72.98	0.13653
73.2	6.81202
73.42	4.21062
73.64	4.4833
73.86	1.76946
74.08	7.20042
74.3	1.31917
74.52	6.091
74.74	9.76216
74.96	1.83176
75.18	5.88532
75.4	0.387747
75.62	5.14157
75.84	6.89531
76.06	7.77949
76.28	7.67531
76.5	3.33073
76.72	11.2549
76.94	11.3299
77.16	7.64675
77.38	2.81005
77.6	7.98259
77.82	0.793102
78.04	1.64942
78.26	0.117887
78.48	3.03289
78.7	6.3605
78.92	13.5503
79.14	2.6488
79.36	5.66046
79.58	14.4831
79.8	5.1001
80.02	7.1198
80.24	4.14336
80.46	8.77481
80.68	0.665579
80.9	5.53413
81.12	0.224072
81.34	4.03177
81.56	2.80569
81.78	3.97701
82	3.0232
82.22	7.05854
82.44	25.9631
82.66	5.85176
82.88	1.0442
83.1	5.91332
83.32	4.87792
83.54	10.002
83.76	2.2115
83.98	4.3523
84.2	13.2667
84.42	11.0469
84.64	12.8854
84.86	9.73031
85.08	0.674403
85.3	3.60164
85.52	7.53762
85.74	4.42895
85.96	12.32
86.18	3.16336
86.4	0.394322
86.62	22.1859
86.84	3.24893
87.06	4.45534
87.28	10.672
87.5	3.88536
87.72	14.9971
87.94	5.21797
88.16	1.51361
88.38	4.78748
88.6	3.90697
88.82	11.093
89.04	11.5414
89.26	10.7505
89.48	0.859417
89.7	10.7901
89.92	8.78619
