Measurement: Powder, Xray Data XY Processed
Mineral: Edoylerite
Rruff sample: R060543
Ideal chemistry: Hg^2+^_3_(Cr^6+^O_4_)S^2-^_2_
Locality: Clear Creek claim, south San Benito County, California, USA
Source: Michael Scott
Description: Aggregates of yellowish-orange bladed crystals
Diffraction sample description: Single crystal, powder profile is calculated
Measured chemistry: Hg^2+^_3.00_(Cr^6+^_1.00_O_4_)S_2.00_
Cell parameters: a: 7.54(1) b: 14.86(2) c: 7.469(9) alpha: 90 beta: 118.69(2) gamma: 90 volume: 734(3) crystal system: monoclinic
x	intensity
5	0
5.22	0
5.44	0
5.66	0
5.88	0
6.1	0
6.32	0
6.54	0
6.76	0
6.98	0
7.2	0
7.42	0
7.64	0
7.86	0
8.08	0
8.3	0
8.52	0
8.74	0
8.96	0
9.18	0
9.4	0
9.62	0
9.84	0
10.06	0
10.28	0
10.5	0
10.72	0
10.94	0
11.16	0
11.38	0
11.6	0
11.82	0.003
12.04	0.012
12.26	0
12.48	0
12.7	0
12.92	0
13.14	0
13.36	0.71
13.58	0
13.8	0
14.02	0
14.24	0
14.46	0
14.68	1.458
14.9	1.483
15.12	0.002
15.34	0
15.56	0
15.78	0
16	0
16.22	0
16.44	0
16.66	0
16.88	0
17.1	0
17.32	0
17.54	0
17.76	0
17.98	13.212
18.2	31.657
18.42	0
18.64	0
18.86	0
19.08	0
19.3	0
19.52	0
19.74	0
19.96	0
20.18	0
20.4	0
20.62	0
20.84	0
21.06	0
21.28	0
21.5	0
21.72	0
21.94	0
22.16	0
22.38	0.327
22.6	4.078
22.82	0
23.04	0
23.26	0
23.48	0
23.7	0
23.92	2.784
24.14	0.312
24.36	6.321
24.58	1.47
24.8	0
25.02	0
25.24	0
25.46	0
25.68	0
25.9	0
26.12	0
26.34	0.005
26.56	2.567
26.78	5.164
27	0.125
27.22	3.111
27.44	0
27.66	79.744
27.88	31.769
28.1	0.003
28.32	4.986
28.54	0
28.76	0
28.98	0
29.2	0
29.42	0.042
29.64	13.066
29.86	2.094
30.08	0.313
30.3	0.789
30.52	0
30.74	0
30.96	0
31.18	0
31.4	0
31.62	0
31.84	0
32.06	0
32.28	0
32.5	0.092
32.72	2.27
32.94	0.822
33.16	4.7
33.38	0.033
33.6	0.04
33.82	0.017
34.04	1.521
34.26	0.001
34.48	0
34.7	0
34.92	0
35.14	0
35.36	0
35.58	0
35.8	0
36.02	1.893
36.24	0.429
36.46	2.573
36.68	1.952
36.9	2.596
37.12	0.101
37.34	0.011
37.56	0
37.78	0
38	1.046
38.22	1.11
38.44	2.406
38.66	11.426
38.88	5.399
39.1	7.264
39.32	0
39.54	0
39.76	0
39.98	0
40.2	0
40.42	0.044
40.64	0.612
40.86	7.713
41.08	15.032
41.3	9.318
41.52	0.3
41.74	0.074
41.96	1.257
42.18	0
42.4	2.562
42.62	0.896
42.84	2.687
43.06	0.005
43.28	0.063
43.5	0.023
43.72	1.05
43.94	0.743
44.16	0.026
44.38	0.832
44.6	0.621
44.82	0.108
45.04	0.922
45.26	0
45.48	0.042
45.7	0
45.92	0.307
46.14	0.956
46.36	0.843
46.58	0
46.8	0
47.02	0
47.24	0
47.46	0.447
47.68	4.44
47.9	0.105
48.12	2.666
48.34	1.763
48.56	0.022
48.78	3.324
49	1.051
49.22	3.172
49.44	0.083
49.66	0
49.88	0.071
50.1	1.791
50.32	0.232
50.54	1.1
50.76	0.004
50.98	0.087
51.2	7.87
51.42	1.628
51.64	0.874
51.86	0.101
52.08	2.531
52.3	0.317
52.52	1.316
52.74	0.536
52.96	0.001
53.18	0.056
53.4	0.337
53.62	0.625
53.84	0.002
54.06	0.717
54.28	0.435
54.5	0.164
54.72	1.066
54.94	0.009
55.16	1.019
55.38	0.11
55.6	0.668
55.82	4.553
56.04	1.914
56.26	4.193
56.48	0.096
56.7	1.031
56.92	1.531
57.14	2.849
57.36	1.67
57.58	3.656
57.8	1.145
58.02	0.23
58.24	0.011
58.46	0.005
58.68	0.023
58.9	0.034
59.12	0.357
59.34	0.117
59.56	0.222
59.78	0.003
60	1.87
60.22	0.226
60.44	0.02
60.66	0.15
60.88	0.016
61.1	0.025
61.32	2.036
61.54	1.433
61.76	0.043
61.98	0.904
62.2	0.159
62.42	0.558
62.64	0.522
62.86	0.729
63.08	1.823
63.3	2.275
63.52	0.427
63.74	0.551
63.96	0.014
64.18	0.471
64.4	0.521
64.62	1.264
64.84	0.255
65.06	1.338
65.28	2.076
65.5	0.726
65.72	0.092
65.94	1.409
66.16	0.782
66.38	0.265
66.6	0.154
66.82	0.201
67.04	0.015
67.26	0.277
67.48	0.448
67.7	0.663
67.92	1.014
68.14	0.865
68.36	0.384
68.58	0.308
68.8	0.302
69.02	0.03
69.24	0.004
69.46	0.331
69.68	0.864
69.9	0.676
70.12	0.023
70.34	0.448
70.56	0.105
70.78	0.05
71	1.103
71.22	0.473
71.44	0.517
71.66	0.466
71.88	0.175
72.1	0.322
72.32	0.4
72.54	0.167
72.76	0.293
72.98	0.133
73.2	0.459
73.42	0.553
73.64	1.525
73.86	0.768
74.08	0.024
74.3	0.346
74.52	0.226
74.74	0.276
74.96	0.151
75.18	0.012
75.4	0
75.62	0
75.84	0.001
76.06	0.258
76.28	1.299
76.5	1.118
76.72	0.665
76.94	0.268
77.16	0.22
77.38	1.353
77.6	1.022
77.82	0.901
78.04	0.509
78.26	0.269
78.48	0.182
78.7	0.785
78.92	0.444
79.14	0.54
79.36	0.319
79.58	0.146
79.8	0.067
80.02	0.052
80.24	0.008
80.46	0.047
80.68	0.036
80.9	0.188
81.12	0.222
81.34	0.187
81.56	0.402
81.78	0.332
82	0.475
82.22	0.968
82.44	0.226
82.66	0.156
82.88	0.513
83.1	0.867
83.32	0.473
83.54	1.139
83.76	1.026
83.98	0.213
84.2	0.177
84.42	0.463
84.64	0.524
84.86	0.495
85.08	0.622
85.3	0.005
85.52	0.139
85.74	0.394
85.96	0.516
86.18	0.098
86.4	0.102
86.62	0.127
86.84	0.236
87.06	0.02
87.28	0.436
87.5	0.216
87.72	0.013
87.94	0.003
88.16	0.629
88.38	0.304
88.6	0.539
88.82	0.354
89.04	0.505
89.26	0.25
89.48	0.118
89.7	0.205
89.92	0.734
