Measurement: Powder, Xray Data XY Processed
Mineral: Elbaite
Rruff sample: R060003
Ideal chemistry: Na(Al_1.5_Li_1.5_)Al_6_(Si_6_O_18_)(BO_3_)_3_(OH)_3_OH
Locality: Mount Begbie, Revelstoke, British Columbia, Canada
Source: Bob Downs
Description: Pink crystal associated with trilithionite, R060004
Diffraction sample description: Powder
Measured chemistry: (Na_0.58_[box]_0.42_)(Al_1.69_Li_1.27_Mn_0.04_)Al_6_(BO_3_)_3_[Si_6_O_18_](OH)_4_
Cell parameters: a: 15.8278(6) b: 15.8278(6) c: 7.0953(5) alpha: 90 beta: 90 gamma: 120 volume: 1539.4(0) crystal system: hexagonal
x	intensity
5	0
5.22	22.553
5.44	5.607
5.66	10.103
5.88	15.766
6.1	8.733
6.32	4.319
6.54	7.688
6.76	7.265
6.98	0.192
7.2	0.461
7.42	6.201
7.64	0.822
7.86	6.29
8.08	4.539
8.3	6.834
8.52	2.009
8.74	10.404
8.96	9.501
9.18	8.713
9.4	14.686
9.62	4.955
9.84	13.032
10.06	4.936
10.28	3.047
10.5	6.073
10.72	2.726
10.94	10.387
11.16	54.318
11.38	12.563
11.6	4.561
11.82	6.945
12.04	13.894
12.26	0.132
12.48	9.933
12.7	8.822
12.92	10.757
13.14	2.694
13.36	12.136
13.58	3.117
13.8	16.33
14.02	61.339
14.24	18.025
14.46	3.117
14.68	3.131
14.9	3.248
15.12	0.296
15.34	9.048
15.56	5.63
15.78	4.05
16	3.514
16.22	4.547
16.44	3.693
16.66	2.781
16.88	6.678
17.1	1.818
17.32	11.527
17.54	3.556
17.76	3.485
17.98	168.271
18.2	9.116
18.42	2.663
18.64	7.613
18.86	9.578
19.08	0.362
19.3	2.782
19.52	28.569
19.74	0.33
19.96	4.45
20.18	13.078
20.4	8.512
20.62	5.26
20.84	4.004
21.06	3.67
21.28	290.391
21.5	8.109
21.72	1.18
21.94	6.796
22.16	5.996
22.38	56.611
22.6	43.459
22.82	1.92
23.04	8.26
23.26	2.04
23.48	7.098
23.7	1.754
23.92	0.072
24.14	1.943
24.36	3.067
24.58	4.463
24.8	11.838
25.02	4.957
25.24	4.612
25.46	3.36
25.68	6.794
25.9	153.973
26.12	18.809
26.34	5.88
26.56	52.554
26.78	8.711
27	7.196
27.22	0.808
27.44	5.308
27.66	3.632
27.88	4.844
28.1	0.265
28.32	6.376
28.54	9.337
28.76	10.176
28.98	44.801
29.2	2.463
29.42	5.181
29.64	10.61
29.86	68.51
30.08	9.347
30.3	11.835
30.52	426.521
30.74	21.326
30.96	3.332
31.18	3.772
31.4	4.095
31.62	15.566
31.84	3.068
32.06	0.561
32.28	9.005
32.5	7.386
32.72	5.449
32.94	3.547
33.16	1.441
33.38	4.395
33.6	3.092
33.82	1.597
34.04	6.245
34.26	6.908
34.48	9.545
34.7	28.542
34.92	20.363
35.14	242.624
35.36	14.817
35.58	6.172
35.8	4.403
36.02	0.372
36.24	1.063
36.46	3.19
36.68	7.172
36.9	16.989
37.12	0.462
37.34	11.314
37.56	3.726
37.78	3.441
38	60.515
38.22	75.496
38.44	5.346
38.66	74.184
38.88	26.345
39.1	3.34
39.32	6.874
39.54	9.542
39.76	12.042
39.98	3.425
40.2	0.995
40.42	1.769
40.64	2.762
40.86	4.834
41.08	2.809
41.3	5.476
41.52	3.407
41.74	23.718
41.96	12.153
42.18	35.772
42.4	4.518
42.62	5.155
42.84	11.546
43.06	159.675
43.28	37.548
43.5	12.447
43.72	11.376
43.94	0.912
44.16	3.593
44.38	9.531
44.6	77.678
44.82	186.629
45.04	18.689
45.26	21.309
45.48	7.413
45.7	4.595
45.92	8.789
46.14	7.278
46.36	3.524
46.58	4.629
46.8	5.644
47.02	3.428
47.24	1.742
47.46	3.589
47.68	15.398
47.9	63.09
48.12	16.841
48.34	17.363
48.56	0.082
48.78	0.064
49	7.079
49.22	34.113
49.44	8.251
49.66	19.41
49.88	6.071
50.1	12.95
50.32	2.481
50.54	1.786
50.76	8.074
50.98	1.367
51.2	3.343
51.42	2.65
51.64	3.984
51.86	23.144
52.08	22.284
52.3	2.396
52.52	1.65
52.74	8.502
52.96	9.392
53.18	5.482
53.4	27.511
53.62	2.527
53.84	10.48
54.06	5.461
54.28	6.522
54.5	3.679
54.72	12.559
54.94	10.45
55.16	7.162
55.38	1.236
55.6	9.076
55.82	17.303
56.04	29.428
56.26	3.164
56.48	31.78
56.7	4.324
56.92	3.129
57.14	2.94
57.36	6.785
57.58	13.663
57.8	2.593
58.02	5.582
58.24	47.337
58.46	30.873
58.68	22.925
58.9	5.044
59.12	16.98
59.34	1.826
59.56	1.599
59.78	1.464
60	12.473
60.22	11.469
60.44	2.54
60.66	4.455
60.88	0.909
61.1	12.152
61.32	5.186
61.54	8.279
61.76	1.294
61.98	12.855
62.2	21.283
62.42	31.436
62.64	7.585
62.86	5.882
63.08	5.535
63.3	3.813
63.52	15.786
63.74	10.734
63.96	5.713
64.18	0.064
64.4	5.488
64.62	33.944
64.84	41.829
65.06	18.602
65.28	4.015
65.5	3.637
65.72	6.364
65.94	7.294
66.16	42.251
66.38	35.155
66.6	10.639
66.82	1.607
67.04	50.109
67.26	35.316
67.48	8.66
67.7	1.018
67.92	4.586
68.14	10.263
68.36	1.604
68.58	10.803
68.8	7.95
69.02	1.731
69.24	1.539
69.46	3.519
69.68	6.38
69.9	13.26
70.12	6.629
70.34	3.178
70.56	5.773
70.78	10.337
71	10.003
71.22	3.257
71.44	23.367
71.66	8.717
71.88	11.308
72.1	5.147
72.32	3.034
72.54	14.985
72.76	16.328
72.98	12.475
73.2	9.739
73.42	5.309
73.64	0.634
73.86	2.935
74.08	3.157
74.3	4.38
74.52	8.623
74.74	6.031
74.96	8.914
75.18	7.429
75.4	41.569
75.62	21.069
75.84	1.757
76.06	1.968
76.28	20.159
76.5	8.23
76.72	5.288
76.94	5.287
77.16	0.034
77.38	3.749
77.6	6.752
77.82	6.757
78.04	1.453
78.26	7.502
78.48	11.574
78.7	9.889
78.92	11.108
79.14	5.428
79.36	7.785
79.58	2.011
79.8	12.193
80.02	9.711
80.24	3.819
80.46	1.788
80.68	5.788
80.9	4.43
81.12	3.445
81.34	5.325
81.56	4.395
81.78	4.286
82	18.397
82.22	11.441
82.44	10.31
82.66	1.411
82.88	5.521
83.1	2.454
83.32	0.603
83.54	4.548
83.76	4.474
83.98	3.18
84.2	9.967
84.42	8.812
84.64	1.702
84.86	12.389
85.08	12.492
85.3	8.426
85.52	5.453
85.74	4.698
85.96	0.882
86.18	7.007
86.4	2.151
86.62	8.412
86.84	0.562
87.06	5.672
87.28	11.609
87.5	12.874
87.72	9.822
87.94	1.912
88.16	1.754
88.38	3.747
88.6	2.855
88.82	4.918
89.04	8.932
89.26	5.889
89.48	7.751
89.7	0.879
89.92	0.076
