Measurement: Powder, Xray Data XY Processed
Mineral: Elbaite
Rruff sample: R050119
Ideal chemistry: Na(Al_1.5_Li_1.5_)Al_6_(Si_6_O_18_)(BO_3_)_3_(OH)_3_OH
Locality: Cruziero mine, San Jose, Minas Gerais, Brazil
Source: Carlos and Paulo Vasconcelos
Description: Red fragment
Diffraction sample description: Powder
Measured chemistry: (Na_0.90_Ca_0.10_)(Al_0.56_Li_0.38_Mn_0.06_)_3_Al_6_(BO_3_)_3_(Si_0.89_B_0.11_)_6_O_18_(OH)_4_
Cell parameters: a: 15.8326(3) b: 15.8326(3) c: 7.0980(2) alpha: 90. beta: 90. gamma: 120. volume: 1540.92(6) crystal system: hexagonal
x	intensity
5	0
5.22	13.498
5.44	1.408
5.66	7.881
5.88	1.311
6.1	11.495
6.32	9.228
6.54	2.026
6.76	11.806
6.98	8.401
7.2	13.892
7.42	5.44
7.64	1.962
7.86	12.312
8.08	6.764
8.3	7.848
8.52	0.491
8.74	3.773
8.96	4.967
9.18	7.989
9.4	13.083
9.62	13.237
9.84	7.295
10.06	12.189
10.28	6.662
10.5	11.64
10.72	12.196
10.94	6.945
11.16	87.746
11.38	0.094
11.6	6.987
11.82	5.984
12.04	1.006
12.26	15.886
12.48	11.188
12.7	21.846
12.92	3.897
13.14	6.405
13.36	4.618
13.58	5.665
13.8	15.47
14.02	115.466
14.24	9.679
14.46	19.621
14.68	4.047
14.9	10.886
15.12	8.035
15.34	3.345
15.56	11.328
15.78	2.429
16	6.667
16.22	8.638
16.44	4.473
16.66	5.176
16.88	6.803
17.1	4.461
17.32	3.119
17.54	7.46
17.76	1.727
17.98	271.027
18.2	15.283
18.42	8.339
18.64	2.353
18.86	0.647
19.08	9.783
19.3	10.807
19.52	19.08
19.74	11.085
19.96	3.052
20.18	10.785
20.4	7.611
20.62	5.5
20.84	6.233
21.06	17.961
21.28	157.521
21.5	1.274
21.72	0.453
21.94	6.633
22.16	10.061
22.38	35.351
22.6	20.599
22.82	8.852
23.04	9.43
23.26	10.595
23.48	12.8
23.7	8.934
23.92	9.954
24.14	17.479
24.36	18.822
24.58	5.32
24.8	2.843
25.02	3.505
25.24	11.347
25.46	4.698
25.68	5.216
25.9	446.256
26.12	21.77
26.34	2.043
26.56	114.19
26.78	15.383
27	1.657
27.22	0.594
27.44	1.612
27.66	2.82
27.88	9.921
28.1	7.749
28.32	11.932
28.54	13.143
28.76	7.604
28.98	39.615
29.2	14.341
29.42	4.936
29.64	8.07
29.86	97.719
30.08	10.355
30.3	7.207
30.52	1703.37
30.74	16.232
30.96	10.455
31.18	8.923
31.4	4.975
31.62	7.47
31.84	8.141
32.06	7.913
32.28	7.802
32.5	4.409
32.72	0.249
32.94	4.913
33.16	3.941
33.38	4.039
33.6	0.067
33.82	7.954
34.04	10.861
34.26	10.626
34.48	13.506
34.7	10.085
34.92	19.089
35.14	173.455
35.36	7.634
35.58	4.854
35.8	11.051
36.02	7.396
36.24	11.226
36.46	6.646
36.68	5.915
36.9	4.877
37.12	8.919
37.34	6.807
37.56	3.473
37.78	9.408
38	369.519
38.22	163.619
38.44	11.338
38.66	66.72
38.88	8.721
39.1	7.663
39.32	14.849
39.54	3.06
39.76	8.304
39.98	7.462
40.2	10.761
40.42	4.875
40.64	10.926
40.86	5.97
41.08	2.089
41.3	11.998
41.52	12.893
41.74	16.769
41.96	10.706
42.18	6.558
42.4	4.251
42.62	4.28
42.84	7.335
43.06	27.285
43.28	31.187
43.5	8.072
43.72	8.67
43.94	2.883
44.16	8.001
44.38	0.071
44.6	63.297
44.82	31.282
45.04	9.185
45.26	7.201
45.48	7.441
45.7	2.623
45.92	17.775
46.14	4.948
46.36	6.909
46.58	2.64
46.8	10.345
47.02	7.954
47.24	1.88
47.46	8.775
47.68	23.795
47.9	209.353
48.12	5.265
48.34	4.148
48.56	5.04
48.78	4.282
49	14.658
49.22	11.036
49.44	0.309
49.66	4.701
49.88	5.83
50.1	0.109
50.32	12.738
50.54	5.01
50.76	9.186
50.98	1.695
51.2	8.776
51.42	11.678
51.64	5.597
51.86	30.983
52.08	16.065
52.3	12.678
52.52	7.672
52.74	7.367
52.96	4.453
53.18	0.22
53.4	10.477
53.62	1.529
53.84	4.499
54.06	2.281
54.28	7.079
54.5	14.755
54.72	16.6
54.94	8.389
55.16	2.119
55.38	5.722
55.6	2.508
55.82	17.009
56.04	54.903
56.26	5.046
56.48	20.111
56.7	3.076
56.92	14.716
57.14	12.84
57.36	9.991
57.58	11.119
57.8	4.295
58.02	10.93
58.24	85.639
58.46	11.921
58.68	6.66
58.9	6.584
59.12	18.348
59.34	4.198
59.56	6.655
59.78	24.468
60	7.53
60.22	21.927
60.44	11.042
60.66	12.997
60.88	3.678
61.1	21.724
61.32	6.242
61.54	0.277
61.76	4.95
61.98	27.178
62.2	17.612
62.42	14.366
62.64	6.111
62.86	4.209
63.08	5.303
63.3	2.55
63.52	15.439
63.74	6.434
63.96	6.383
64.18	4.328
64.4	9.272
64.62	43.259
64.84	49.247
65.06	7.11
65.28	5.807
65.5	1.6
65.72	1.564
65.94	4.511
66.16	3.486
66.38	5.775
66.6	2.709
66.82	6.79
67.04	97.736
67.26	34.017
67.48	3.233
67.7	0.562
67.92	1.803
68.14	2.904
68.36	9.586
68.58	9.741
68.8	1.394
69.02	0.321
69.24	3.826
69.46	2.695
69.68	6.49
69.9	3.75
70.12	3.753
70.34	1.71
70.56	0.652
70.78	4.903
71	7.771
71.22	1.741
71.44	11.524
71.66	27.333
71.88	26.199
72.1	16.236
72.32	0.755
72.54	7.376
72.76	5.515
72.98	6.07
73.2	1.505
73.42	3.765
73.64	2.022
73.86	4.195
74.08	12.361
74.3	11.465
74.52	5.572
74.74	4.671
74.96	8.745
75.18	12.361
75.4	3.431
75.62	7.282
75.84	5.379
76.06	0.556
76.28	11.853
76.5	8.972
76.72	6.271
76.94	11.741
77.16	8.497
77.38	4.439
77.6	15.586
77.82	6.53
78.04	5.513
78.26	10.332
78.48	1.201
78.7	1.041
78.92	2.965
79.14	1.922
79.36	2.93
79.58	5.012
79.8	6.122
80.02	2.071
80.24	4.175
80.46	1.345
80.68	8.562
80.9	5.664
81.12	4.768
81.34	7.162
81.56	9.04
81.78	9.092
82	5.107
82.22	10.259
82.44	12.654
82.66	2.824
82.88	1.729
83.1	1.436
83.32	5.52
83.54	5.452
83.76	4.035
83.98	4.825
84.2	9.639
84.42	2.688
84.64	5.763
84.86	13.476
85.08	4.507
85.3	8.766
85.52	0.015
85.74	5.19
85.96	1.532
86.18	7.732
86.4	1.894
86.62	1.085
86.84	2.155
87.06	6.368
87.28	5.567
87.5	6.598
87.72	8.505
87.94	3.491
88.16	1.506
88.38	6.342
88.6	6.364
88.82	11.528
89.04	6.518
89.26	6.113
89.48	5.075
89.7	1.244
89.92	5.585
