Measurement: Powder, Xray Data XY Processed
Mineral: Emeleusite
Rruff sample: R061034
Ideal chemistry: Na_2_LiFe^3+^Si_6_O_15_
Locality: Igdlutalig, Ilimaussaq, Greenland
Source: Michael Scott
Description: Light pink massive associated with albite and aegirine, co-type specimen
Diffraction sample description: Powder
Measured chemistry: (Na_1.57_K_0.43_)_Σ=2_Li_1.00_(Fe^3+^_0.77_Al_0.18_Ti_0.02_Mg_0.02_)_Σ=1_Si_6.00_O_15_; (lighter areas) Li estimated by difference; dark: albite
Cell parameters: a: 10.047(2) b: 17.417(6) c: 14.048(6) alpha: 90 beta: 90 gamma: 90 volume: 2458.3(8) crystal system: orthorhombic
x	intensity
5	0
5.22	0.729824
5.44	8.52679
5.66	15.9163
5.88	22.5461
6.1	17.7208
6.32	20.8273
6.54	14.1215
6.76	14.2003
6.98	12.3177
7.2	15.6412
7.42	18.2798
7.64	3.66067
7.86	3.93293
8.08	3.54079
8.3	9.48114
8.52	16.1041
8.74	2.30268
8.96	11.4095
9.18	5.50471
9.4	10.3691
9.62	8.66478
9.84	18.6193
10.06	22.7682
10.28	1.02064
10.5	0.083652
10.72	1.30139
10.94	3.50129
11.16	6.50398
11.38	22.7043
11.6	11.9543
11.82	11.8775
12.04	1.8881
12.26	4.95897
12.48	21.8891
12.7	46.7807
12.92	15.6688
13.14	2.58318
13.36	6.58803
13.58	6.12214
13.8	4.09519
14.02	13.5945
14.24	4.30856
14.46	0.49106
14.68	5.8693
14.9	14.9861
15.12	5.8493
15.34	9.04181
15.56	14.3827
15.78	8.80231
16	8.51153
16.22	10.6412
16.44	0.78319
16.66	6.52184
16.88	5.88121
17.1	3.9514
17.32	10.0619
17.54	6.20285
17.76	6.84348
17.98	7.70489
18.2	6.59457
18.42	7.71239
18.64	11.7598
18.86	1.68614
19.08	4.3179
19.3	15.2325
19.52	5.96558
19.74	0.583704
19.96	9.26308
20.18	19.3381
20.4	134.712
20.62	20.7795
20.84	11.668
21.06	9.2172
21.28	12.8014
21.5	15.7176
21.72	58.1426
21.94	21.3236
22.16	10.4062
22.38	12.1155
22.6	10.1926
22.82	4.18993
23.04	4.72305
23.26	13.3061
23.48	5.35031
23.7	18.0822
23.92	12.6295
24.14	27.0398
24.36	59.774
24.58	4.64273
24.8	6.14031
25.02	8.37294
25.24	16.3498
25.46	115.992
25.68	24.1718
25.9	8.35762
26.12	0.441336
26.34	10.0928
26.56	3.70557
26.78	16.169
27	7.59713
27.22	15.2172
27.44	28.9004
27.66	31.8513
27.88	258.78
28.1	42.2649
28.32	27.6518
28.54	14.2066
28.76	0.857819
28.98	31.0455
29.2	4.99104
29.42	8.39665
29.64	3.61013
29.86	5.89459
30.08	16.1347
30.3	7.9946
30.52	29.0536
30.74	5.45821
30.96	37.0391
31.18	59.5928
31.4	13.5366
31.62	6.11578
31.84	11.0692
32.06	23.4608
32.28	8.78246
32.5	1.29971
32.72	29.6749
32.94	8.20283
33.16	18.1545
33.38	19.204
33.6	11.3609
33.82	16.9706
34.04	44.8166
34.26	2.44215
34.48	4.48732
34.7	16.6153
34.92	1.45433
35.14	15.6766
35.36	22.3418
35.58	4.42611
35.8	50.889
36.02	10.3637
36.24	3.12207
36.46	2.98746
36.68	0.010807
36.9	12.5161
37.12	10.965
37.34	12.1421
37.56	3.61025
37.78	10.2986
38	9.35382
38.22	13.9934
38.44	10.5626
38.66	24.9868
38.88	9.28568
39.1	10.3599
39.32	16.8754
39.54	26.383
39.76	2.43786
39.98	8.07513
40.2	0.798223
40.42	28.5343
40.64	16.5626
40.86	0.43988
41.08	5.71259
41.3	13.4166
41.52	7.24226
41.74	13.2214
41.96	9.95107
42.18	10.1404
42.4	12.1301
42.62	10.3376
42.84	11.5568
43.06	6.46021
43.28	2.64962
43.5	13.2732
43.72	15.8319
43.94	0.014269
44.16	3.42589
44.38	1.86183
44.6	14.8087
44.82	4.95015
45.04	14.118
45.26	8.41653
45.48	25.4826
45.7	20.9621
45.92	22.0603
46.14	0.809563
46.36	11.0058
46.58	3.64563
46.8	7.73047
47.02	15.7746
47.24	14.7983
47.46	17.7538
47.68	16.4754
47.9	13.3206
48.12	10.3293
48.34	8.98963
48.56	12.0748
48.78	4.74077
49	10.8734
49.22	15.7605
49.44	6.18428
49.66	11.4162
49.88	23.4012
50.1	17.2513
50.32	12.9277
50.54	6.93602
50.76	4.3857
50.98	4.20042
51.2	15.2566
51.42	2.40204
51.64	14.1751
51.86	4.14217
52.08	27.9475
52.3	25.0315
52.52	17.1918
52.74	4.35587
52.96	6.59129
53.18	13.3162
53.4	14.8846
53.62	23.2104
53.84	4.40722
54.06	10.4142
54.28	14.5872
54.5	13.9302
54.72	11.5825
54.94	27.1425
55.16	10.6609
55.38	22.9057
55.6	15.7566
55.82	4.52198
56.04	3.42972
56.26	9.79376
56.48	17.0883
56.7	18.5943
56.92	11.5617
57.14	4.62997
57.36	2.19796
57.58	6.60142
57.8	4.61081
58.02	6.44821
58.24	10.6328
58.46	9.38552
58.68	8.01507
58.9	8.52312
59.12	2.36318
59.34	4.78198
59.56	21.2057
59.78	7.26513
60	16.0551
60.22	3.07107
60.44	5.07748
60.66	6.74467
60.88	9.85391
61.1	3.38495
61.32	23.0631
61.54	16.7505
61.76	4.54677
61.98	15.3943
62.2	6.91594
62.42	7.20449
62.64	14.3866
62.86	2.50226
63.08	5.61986
63.3	3.14314
63.52	5.89877
63.74	4.36235
63.96	5.2119
64.18	11.7623
64.4	12.0817
64.62	0.681576
64.84	18.1017
65.06	5.99761
65.28	11.8689
65.5	3.06381
65.72	11.7163
65.94	9.25375
66.16	9.41483
66.38	2.52928
66.6	1.66219
66.82	6.63055
67.04	11.9127
67.26	17.0225
67.48	18.0822
67.7	5.31111
67.92	8.34666
68.14	12.4224
68.36	19.4593
68.58	6.74597
68.8	3.84048
69.02	18.3325
69.24	1.94642
69.46	14.0531
69.68	20.0933
69.9	3.02056
70.12	16.002
70.34	8.71706
70.56	0.956066
70.78	3.80406
71	20.928
71.22	6.03651
71.44	8.97816
71.66	14.428
71.88	13.8613
72.1	5.04354
72.32	6.04815
72.54	3.07218
72.76	1.14117
72.98	12.2503
73.2	11.2847
73.42	7.48416
73.64	4.37957
73.86	11.6586
74.08	4.60346
74.3	15.3825
74.52	5.8034
74.74	9.94615
74.96	1.14196
75.18	1.11952
75.4	12.4073
75.62	7.70786
75.84	6.76195
76.06	15.1902
76.28	5.55011
76.5	7.96427
76.72	4.06603
76.94	11.7604
77.16	16.0365
77.38	16.384
77.6	15.8828
77.82	15.6764
78.04	3.39525
78.26	3.61598
78.48	7.40359
78.7	12.9883
78.92	9.55865
79.14	6.88501
79.36	5.72931
79.58	14.3363
79.8	17.5274
80.02	11.1947
80.24	1.18292
80.46	3.68623
80.68	6.81776
80.9	4.06924
81.12	3.98786
81.34	13.4868
81.56	1.22552
81.78	6.35541
82	7.60851
82.22	4.38686
82.44	7.41154
82.66	7.7685
82.88	4.96552
83.1	12.066
83.32	10.5229
83.54	21.8959
83.76	2.67085
83.98	10.765
84.2	2.80595
84.42	12.7549
84.64	8.89141
84.86	20.6989
85.08	7.39142
85.3	9.40816
85.52	13.2237
85.74	16.8215
85.96	8.62887
86.18	15.7289
86.4	6.64412
86.62	6.79684
86.84	8.74657
87.06	11.8396
87.28	1.10964
87.5	2.15547
87.72	2.9313
87.94	3.4981
88.16	8.51588
88.38	12.0494
88.6	12.2916
88.82	6.53956
89.04	7.73848
89.26	6.58075
89.48	7.67643
89.7	12.6296
89.92	4.26541
