Measurement: Powder, Xray Data XY Processed
Mineral: Enstatite
Rruff sample: R050644
Ideal chemistry: MgSiO_3_
Locality: Morogoro, Tanzania
Source: Jibamitra Ganguly
Description: Light brown crystal fragment
Diffraction sample description: Powder
Measured chemistry: (Mg_0.90_Fe_0.10_)SiO_3_
Cell parameters: a: 18.240(4) b: 8.8359(9) c: 5.189(1) alpha: 90 beta: 90 gamma: 90 volume: 836.3(2) crystal system: orthorhombic
x	intensity
5	0
5.22	1.57
5.44	22.943
5.66	7.036
5.88	15.582
6.1	20.39
6.32	11.896
6.54	11.977
6.76	0.915
6.98	19.395
7.2	11.89
7.42	8.675
7.64	12.594
7.86	9.232
8.08	8.01
8.3	7.656
8.52	8.581
8.74	0.084
8.96	15.113
9.18	20.462
9.4	13.349
9.62	12.745
9.84	8.001
10.06	5.051
10.28	5.873
10.5	8.226
10.72	9.436
10.94	10.378
11.16	2.208
11.38	11.378
11.6	10.319
11.82	14.685
12.04	0.562
12.26	13.129
12.48	12.177
12.7	3.075
12.92	8.764
13.14	17.932
13.36	4.848
13.58	4.064
13.8	17.41
14.02	3.72
14.24	9.847
14.46	5.095
14.68	7.35
14.9	11.564
15.12	6.667
15.34	16.064
15.56	3.288
15.78	0.549
16	3.734
16.22	4.739
16.44	2.848
16.66	7.454
16.88	9.7
17.1	6.232
17.32	8.606
17.54	3.778
17.76	15.826
17.98	7.819
18.2	12.884
18.42	7.827
18.64	9.455
18.86	21.999
19.08	3.654
19.3	14.603
19.52	11.219
19.74	16.02
19.96	1.042
20.18	19.916
20.4	13.693
20.62	10.951
20.84	14.077
21.06	3.2
21.28	1.617
21.5	10.653
21.72	7.059
21.94	0.929
22.16	25.439
22.38	9.414
22.6	4.311
22.82	8.922
23.04	10.774
23.26	9.511
23.48	7.354
23.7	3.019
23.92	6.18
24.14	8.716
24.36	6.462
24.58	11.862
24.8	10.132
25.02	7.303
25.24	5.266
25.46	14.021
25.68	14.266
25.9	4.042
26.12	2.413
26.34	2.088
26.56	6.118
26.78	1.017
27	5.478
27.22	14.946
27.44	7.298
27.66	15.768
27.88	5.352
28.1	65.845
28.32	142.829
28.54	33.123
28.76	12.877
28.98	1.757
29.2	4.857
29.42	11.495
29.64	2.117
29.86	16.796
30.08	8.383
30.3	12.13
30.52	38.962
30.74	13.58
30.96	14.232
31.18	205.72
31.4	24.51
31.62	1.886
31.84	23.367
32.06	14.971
32.28	2.237
32.5	3.867
32.72	5.862
32.94	15.322
33.16	36.064
33.38	16.835
33.6	10.725
33.82	3.435
34.04	9.035
34.26	7.938
34.48	5.351
34.7	4.385
34.92	5.522
35.14	12.507
35.36	20.936
35.58	45.383
35.8	19.567
36.02	33.234
36.24	41.53
36.46	50.018
36.68	15.332
36.9	0.234
37.12	3.318
37.34	3.36
37.56	1.877
37.78	12.74
38	20.107
38.22	8.723
38.44	4.794
38.66	5.791
38.88	9.077
39.1	4.282
39.32	7.664
39.54	20.921
39.76	7.765
39.98	8.644
40.2	14.724
40.42	14.714
40.64	17.423
40.86	4.274
41.08	4.267
41.3	7.202
41.52	0.041
41.74	9.359
41.96	11.775
42.18	6.104
42.4	1.498
42.62	11.17
42.84	29.942
43.06	17.407
43.28	21.165
43.5	15.714
43.72	11.528
43.94	6.346
44.16	25.48
44.38	0.956
44.6	4.388
44.82	12.535
45.04	21.548
45.26	3.442
45.48	8.63
45.7	18.568
45.92	13.563
46.14	5.731
46.36	26.41
46.58	44.83
46.8	6.22
47.02	6.086
47.24	8.128
47.46	13.212
47.68	10.2
47.9	5.397
48.12	1.113
48.34	11.327
48.56	10.44
48.78	1.924
49	1.356
49.22	9.188
49.44	13.254
49.66	9.157
49.88	10.29
50.1	17.35
50.32	5.14
50.54	4.127
50.76	0.172
50.98	5.236
51.2	31.363
51.42	10.123
51.64	22.976
51.86	13.705
52.08	5.76
52.3	1.197
52.52	13.625
52.74	13.574
52.96	4.546
53.18	7.416
53.4	12.298
53.62	4.041
53.84	13.832
54.06	20.828
54.28	6.481
54.5	13.827
54.72	13.685
54.94	5.798
55.16	1.86
55.38	7.006
55.6	8.187
55.82	7.988
56.04	14.714
56.26	15.485
56.48	10.936
56.7	6.403
56.92	3.793
57.14	7.568
57.36	19.533
57.58	28.513
57.8	14.596
58.02	26.373
58.24	24.473
58.46	8.042
58.68	5.703
58.9	7.895
59.12	9.964
59.34	1.513
59.56	7.639
59.78	2.189
60	10.197
60.22	5.171
60.44	9.542
60.66	16.555
60.88	25.39
61.1	28.625
61.32	12.222
61.54	2.919
61.76	3.114
61.98	4.764
62.2	4.476
62.42	24.319
62.64	24.332
62.86	21.814
63.08	28.923
63.3	30.301
63.52	13.041
63.74	4.747
63.96	8.351
64.18	0.656
64.4	9.322
64.62	10.793
64.84	14.952
65.06	13.059
65.28	12.806
65.5	2.729
65.72	20.758
65.94	8.917
66.16	11.121
66.38	12.791
66.6	7.526
66.82	7.974
67.04	27.573
67.26	32.556
67.48	27.424
67.7	9.94
67.92	4.344
68.14	9.889
68.36	16.688
68.58	4.322
68.8	1.188
69.02	15.864
69.24	2.492
69.46	4.014
69.68	7.422
69.9	2.925
70.12	4.72
70.34	20.835
70.56	14.95
70.78	13.643
71	4.228
71.22	13.689
71.44	10.291
71.66	13.155
71.88	5.834
72.1	14.349
72.32	28.704
72.54	6.378
72.76	7.908
72.98	19.744
73.2	11.968
73.42	15.783
73.64	7.778
73.86	6.395
74.08	7.294
74.3	3.035
74.52	4.167
74.74	1.608
74.96	17.284
75.18	5.409
75.4	10.811
75.62	11.765
75.84	4.929
76.06	9.971
76.28	1.103
76.5	0.516
76.72	6.998
76.94	7.231
77.16	20.205
77.38	9.581
77.6	13.65
77.82	13.285
78.04	6.203
78.26	1.384
78.48	1.495
78.7	12.889
78.92	0.289
79.14	3.149
79.36	12.067
79.58	21.392
79.8	8.142
80.02	5.206
80.24	9.019
80.46	2.023
80.68	10.015
80.9	14.109
81.12	8.37
81.34	7.681
81.56	12.17
81.78	6.106
82	8.906
82.22	2.867
82.44	13.009
82.66	15.968
82.88	1.964
83.1	8.97
83.32	4.906
83.54	6.819
83.76	4.894
83.98	11.199
84.2	19.369
84.42	1.098
84.64	11.048
84.86	10.941
85.08	12.165
85.3	1.507
85.52	6.551
85.74	6.397
85.96	12.913
86.18	6.28
86.4	14.125
86.62	7.162
86.84	13.669
87.06	8.917
87.28	4.975
87.5	3.147
87.72	4.077
87.94	2.116
88.16	5.19
88.38	16.487
88.6	16.137
88.82	7.969
89.04	10.147
89.26	2.111
89.48	4.569
89.7	24.878
89.92	6.97
