Measurement: Powder, Xray Data XY Processed
Mineral: Enstatite
Rruff sample: R070550
Ideal chemistry: MgSiO_3_
Locality: Tanzania
Source: www.multicolour.com
Description: Brown, translucent, vitreous crystal fragment
Diffraction sample description: Powder
Measured chemistry: (Mg_0.90_Fe_0.10_)_Î£=1_Si_1.00_O_3_
Cell parameters: a: 18.2496(4) b: 8.8369(3) c: 5.1914(2) alpha: 90 beta: 90 gamma: 90 volume: 837.21(4) crystal system: orthorhombic
x	intensity
5	0
5.22	18.4977
5.44	11.9851
5.66	7.60073
5.88	2.80769
6.1	5.38755
6.32	14.717
6.54	22.6006
6.76	30.4828
6.98	2.10544
7.2	23.872
7.42	8.03025
7.64	17.3392
7.86	9.11917
8.08	3.71695
8.3	24.383
8.52	15.4892
8.74	6.14426
8.96	8.78264
9.18	19.9561
9.4	16.3859
9.62	2.40758
9.84	4.06677
10.06	11.6398
10.28	11.8549
10.5	9.38736
10.72	18.6127
10.94	24.2933
11.16	0.344112
11.38	14.7666
11.6	17.449
11.82	25.5183
12.04	12.6058
12.26	23.6214
12.48	12.151
12.7	11.2739
12.92	15.68
13.14	17.4692
13.36	10.7241
13.58	14.5973
13.8	14.5166
14.02	34.2268
14.24	26.0639
14.46	16.7336
14.68	11.8533
14.9	5.19332
15.12	10.0029
15.34	26.0684
15.56	15.5121
15.78	14.7737
16	15.0644
16.22	16.1286
16.44	12.0547
16.66	13.7345
16.88	6.81841
17.1	1.76506
17.32	1.06709
17.54	11.3634
17.76	2.61187
17.98	3.96791
18.2	25.9675
18.42	13.5743
18.64	3.44574
18.86	11.5518
19.08	22.7068
19.3	14.2691
19.52	15.9134
19.74	11.2591
19.96	12.0108
20.18	57.5678
20.4	13.5014
20.62	12.3332
20.84	20.5177
21.06	16.1699
21.28	11.1062
21.5	1.72643
21.72	11.8861
21.94	32.0425
22.16	11.3338
22.38	6.17918
22.6	8.49532
22.82	14.3553
23.04	6.76094
23.26	10.746
23.48	9.04435
23.7	13.6055
23.92	14.735
24.14	22.2543
24.36	18.2301
24.58	3.79624
24.8	23.539
25.02	4.31737
25.24	12.0194
25.46	16.1354
25.68	16.9322
25.9	19.2736
26.12	15.3514
26.34	5.83361
26.56	4.87995
26.78	19.8685
27	43.8837
27.22	15.6254
27.44	18.753
27.66	1.38943
27.88	39.3772
28.1	1874.84
28.32	163.418
28.54	1.39099
28.76	4.63742
28.98	0.352489
29.2	12.0138
29.42	9.21547
29.64	8.06157
29.86	15.7337
30.08	0.057606
30.3	45.7425
30.52	9.43995
30.74	23.0767
30.96	25.2885
31.18	841.356
31.4	15.6212
31.62	56.4527
31.84	19.7557
32.06	21.431
32.28	3.20951
32.5	11.1576
32.72	4.1582
32.94	22.4037
33.16	79.9758
33.38	8.0716
33.6	19.1073
33.82	7.46232
34.04	2.00993
34.26	18.0028
34.48	25.6605
34.7	7.85572
34.92	13.9861
35.14	5.07803
35.36	102.664
35.58	7.61258
35.8	8.70817
36.02	31.0576
36.24	25.7779
36.46	28.7627
36.68	11.1366
36.9	18.8988
37.12	9.49149
37.34	0.723705
37.56	6.37266
37.78	15.8797
38	4.56692
38.22	16.2645
38.44	24.948
38.66	17.7537
38.88	32.6023
39.1	15.6534
39.32	13.3913
39.54	6.54896
39.76	13.8576
39.98	25.5636
40.2	17.775
40.42	5.9511
40.64	5.41583
40.86	5.84385
41.08	6.32668
41.3	12.4582
41.52	0.492954
41.74	3.51973
41.96	1.67035
42.18	9.78027
42.4	22.0238
42.62	18.1377
42.84	60.5859
43.06	39.7838
43.28	21.8325
43.5	17.7018
43.72	13.4998
43.94	51.4892
44.16	3.74425
44.38	14.59
44.6	21.5184
44.82	38.9317
45.04	5.73162
45.26	13.923
45.48	22.4035
45.7	105.773
45.92	36.1228
46.14	18.4981
46.36	41.2334
46.58	19.5072
46.8	18.558
47.02	12.3717
47.24	1.06958
47.46	2.89115
47.68	10.7578
47.9	14.149
48.12	14.2913
48.34	15.5496
48.56	5.9008
48.78	12.8241
49	15.7716
49.22	18.1538
49.44	10.0788
49.66	11.6096
49.88	12.9827
50.1	0.58717
50.32	0.869602
50.54	11.9896
50.76	12.5063
50.98	13.4958
51.2	31.3212
51.42	28.3048
51.64	22.3536
51.86	6.37606
52.08	4.13108
52.3	9.30227
52.52	12.3381
52.74	159.357
52.96	11.5128
53.18	9.72033
53.4	12.8343
53.62	1.93272
53.84	21.4977
54.06	30.4676
54.28	19.6395
54.5	22.9259
54.72	12.973
54.94	5.07602
55.16	0.369205
55.38	14.372
55.6	8.71019
55.82	11.918
56.04	14.7174
56.26	3.45937
56.48	9.50781
56.7	5.52229
56.92	11.8821
57.14	10.702
57.36	11.5473
57.58	18.4479
57.8	11.6024
58.02	57.0648
58.24	21.013
58.46	20.3112
58.68	13.5627
58.9	14.6919
59.12	20.1908
59.34	16.167
59.56	27.1409
59.78	5.82841
60	6.60233
60.22	12.3023
60.44	21.9655
60.66	33.8491
60.88	166.634
61.1	30.0177
61.32	9.6065
61.54	7.07056
61.76	4.90117
61.98	3.20542
62.2	4.35318
62.42	59.6003
62.64	65.1176
62.86	26.2111
63.08	212.401
63.3	46.0421
63.52	9.52532
63.74	15.7007
63.96	6.61699
64.18	2.98784
64.4	13.4308
64.62	10.5536
64.84	2.71586
65.06	6.22383
65.28	2.36629
65.5	1.79822
65.72	6.18734
65.94	15.7566
66.16	16.8381
66.38	38.22
66.6	20.1046
66.82	13.8632
67.04	8.48393
67.26	28.815
67.48	12.4847
67.7	22.3205
67.92	27.538
68.14	18.1165
68.36	22.6852
68.58	9.19537
68.8	11.5047
69.02	8.6512
69.24	12.1879
69.46	23.9555
69.68	9.15787
69.9	12.9268
70.12	0.692013
70.34	12.0624
70.56	21.2832
70.78	1.4692
71	9.36944
71.22	1.21276
71.44	16.232
71.66	6.82201
71.88	12.9923
72.1	12.4835
72.32	0.272804
72.54	10.2325
72.76	8.94243
72.98	25.9777
73.2	16.9449
73.42	14.1347
73.64	17.4428
73.86	4.56724
74.08	11.7575
74.3	10.7062
74.52	6.90704
74.74	42.3073
74.96	23.4133
75.18	2.39
75.4	14.3423
75.62	0.438332
75.84	12.2992
76.06	18.3705
76.28	27.588
76.5	0.295349
76.72	20.7152
76.94	5.75969
77.16	8.12668
77.38	19.696
77.6	6.5838
77.82	11.1697
78.04	7.454
78.26	20.0123
78.48	16.1423
78.7	5.64199
78.92	19.7268
79.14	4.83843
79.36	3.96397
79.58	7.29906
79.8	0.781517
80.02	9.24279
80.24	4.20073
80.46	12.6892
80.68	6.46056
80.9	7.48508
81.12	7.15281
81.34	4.14657
81.56	24.4078
81.78	7.46125
82	9.68984
82.22	21.7935
82.44	18.351
82.66	1.53617
82.88	9.31178
83.1	16.4711
83.32	12.5487
83.54	4.82193
83.76	7.95834
83.98	9.0676
84.2	5.18063
84.42	23.3211
84.64	17.9605
84.86	29.564
85.08	8.83221
85.3	5.61423
85.52	16.8482
85.74	1.93832
85.96	13.3999
86.18	20.6751
86.4	6.6539
86.62	0.975029
86.84	24.0125
87.06	17.3235
87.28	17.5162
87.5	10.1047
87.72	12.0696
87.94	12.1383
88.16	1.72014
88.38	9.69113
88.6	5.43458
88.82	1.89982
89.04	9.69421
89.26	20.8075
89.48	10.3201
89.7	19.0464
89.92	15.2319
