Measurement: Powder, Xray Data XY Processed
Mineral: Enstatite
Rruff sample: R040093
Ideal chemistry: MgSiO_3_
Locality: Castle Rock, Pennsylvania, USA
Source: University of Arizona Mineral Museum
Description: Dark green massive
Diffraction sample description: Powder
Measured chemistry: (Mg_0.84_Fe_0.15_Al_0.01_)Si_1.00_O_3_
Cell parameters: a: 18.2566(8) b: 8.8467(4) c: 5.1917(6) alpha: 90. beta: 90. gamma: 90. volume: 838.52(10) crystal system: orthorhombic
x	intensity
5	0
5.22	23.653
5.44	29.522
5.66	19.722
5.88	8.824
6.1	21.33
6.32	15.543
6.54	16.712
6.76	17.438
6.98	14.411
7.2	14.211
7.42	19.37
7.64	19.392
7.86	10.234
8.08	12.402
8.3	16.419
8.52	12.608
8.74	23.594
8.96	6.861
9.18	20.917
9.4	9.255
9.62	26.063
9.84	56.872
10.06	27.583
10.28	18.888
10.5	26.232
10.72	75.231
10.94	5.578
11.16	22.996
11.38	2.322
11.6	19.4
11.82	4.025
12.04	22.176
12.26	22.158
12.48	15.474
12.7	12.619
12.92	7.214
13.14	4.602
13.36	9.402
13.58	6.87
13.8	20.805
14.02	33.261
14.24	17.387
14.46	19.042
14.68	4.426
14.9	14.681
15.12	20.627
15.34	16.938
15.56	31.594
15.78	9.463
16	4.347
16.22	20.978
16.44	16.036
16.66	15.874
16.88	2.783
17.1	6.922
17.32	7.095
17.54	18.488
17.76	11.171
17.98	9.356
18.2	12.989
18.42	10.866
18.64	3.079
18.86	10.936
19.08	11.813
19.3	0.357
19.52	35.288
19.74	14.809
19.96	6.367
20.18	30.272
20.4	11.4
20.62	3.678
20.84	7.818
21.06	20.843
21.28	17.407
21.5	14.79
21.72	16.962
21.94	1.04
22.16	16.129
22.38	16.451
22.6	9.486
22.82	2.754
23.04	31.69
23.26	20.708
23.48	11.071
23.7	8.812
23.92	7.67
24.14	4.898
24.36	25.843
24.58	14.245
24.8	12.841
25.02	0.907
25.24	17.132
25.46	8.979
25.68	5.437
25.9	5.123
26.12	9.835
26.34	3.182
26.56	27.887
26.78	8.701
27	31.103
27.22	13.678
27.44	13.827
27.66	93.269
27.88	23.657
28.1	275.55
28.32	132.687
28.54	10.869
28.76	20.392
28.98	3.933
29.2	4.317
29.42	60.484
29.64	7.438
29.86	0.581
30.08	9.466
30.3	24.807
30.52	23.25
30.74	12.386
30.96	18.837
31.18	423.704
31.4	15.296
31.62	59.439
31.84	7.661
32.06	13.496
32.28	5.874
32.5	19.351
32.72	30.438
32.94	24.598
33.16	62.851
33.38	13.346
33.6	21.362
33.82	5.81
34.04	14.65
34.26	7.422
34.48	8.023
34.7	12.536
34.92	1.283
35.14	2.454
35.36	92.948
35.58	17.042
35.8	20.198
36.02	48.469
36.24	39.048
36.46	56.373
36.68	0.136
36.9	11.295
37.12	10.38
37.34	2.915
37.56	13.112
37.78	15.721
38	8.4
38.22	16.454
38.44	16.311
38.66	19.066
38.88	1.246
39.1	6.943
39.32	6.332
39.54	8.125
39.76	13.821
39.98	15.839
40.2	9.955
40.42	22.811
40.64	5.077
40.86	21.019
41.08	13.588
41.3	26.487
41.52	7.483
41.74	0.776
41.96	26.304
42.18	4.565
42.4	22.037
42.62	2.009
42.84	22.077
43.06	22.032
43.28	26.347
43.5	6.494
43.72	1.739
43.94	22.958
44.16	12.889
44.38	24.942
44.6	23.868
44.82	23.475
45.04	25.419
45.26	12.636
45.48	5.986
45.7	37.368
45.92	12.837
46.14	2.247
46.36	166.756
46.58	23.286
46.8	4.65
47.02	1.847
47.24	11.597
47.46	4.764
47.68	8.562
47.9	6.447
48.12	6.396
48.34	12.348
48.56	12.908
48.78	35.612
49	19.068
49.22	7.802
49.44	26.843
49.66	10.839
49.88	9.128
50.1	3.978
50.32	11.732
50.54	13.337
50.76	1.942
50.98	10.043
51.2	26.836
51.42	29.357
51.64	19.461
51.86	6.64
52.08	11.941
52.3	0.171
52.52	24.885
52.74	41.017
52.96	9.109
53.18	5.188
53.4	7.192
53.62	5.874
53.84	22.492
54.06	18.612
54.28	19.551
54.5	10.527
54.72	5.026
54.94	14.466
55.16	2.116
55.38	15.03
55.6	7.139
55.82	12.076
56.04	14.005
56.26	9.94
56.48	2.732
56.7	3.723
56.92	16.458
57.14	9.212
57.36	19.8
57.58	10.622
57.8	5.48
58.02	37.564
58.24	12.576
58.46	9.43
58.68	19.942
58.9	12.4
59.12	25.639
59.34	12.179
59.56	21.343
59.78	26.347
60	4.62
60.22	10.714
60.44	18.041
60.66	24.579
60.88	40.45
61.1	8.015
61.32	22.101
61.54	0.378
61.76	15.999
61.98	19.752
62.2	12.669
62.42	69.333
62.64	37.902
62.86	31.387
63.08	111.834
63.3	36.021
63.52	1.628
63.74	13.441
63.96	1.951
64.18	13.39
64.4	11.469
64.62	13.768
64.84	1.255
65.06	14.466
65.28	20.386
65.5	19.306
65.72	27.073
65.94	20.455
66.16	5.946
66.38	19.627
66.6	19.986
66.82	19.396
67.04	27.293
67.26	28.577
67.48	0.14
67.7	11.323
67.92	12.507
68.14	1.02
68.36	2.481
68.58	12.283
68.8	0.665
69.02	20.245
69.24	1.441
69.46	10.176
69.68	7.23
69.9	20.327
70.12	12.869
70.34	10.188
70.56	11.493
70.78	9.149
71	6.531
71.22	11.275
71.44	11.361
71.66	13.503
71.88	7.775
72.1	15.61
72.32	30.69
72.54	22.282
72.76	2.499
72.98	13.053
73.2	27.425
73.42	39.959
73.64	15.273
73.86	0.749
74.08	13.555
74.3	28.798
74.52	29.836
74.74	38.877
74.96	18.612
75.18	12.239
75.4	14.969
75.62	1.454
75.84	4.428
76.06	21.292
76.28	27.414
76.5	5.845
76.72	14.045
76.94	8.485
77.16	10.8
77.38	12.53
77.6	17.223
77.82	14.399
78.04	3.669
78.26	15.826
78.48	43.259
78.7	8.67
78.92	0.96
79.14	7.44
79.36	24.228
79.58	8.48
79.8	7.902
80.02	8.859
80.24	5.1
80.46	9.885
80.68	18.864
80.9	15.468
81.12	4.408
81.34	13.294
81.56	12.932
81.78	14.725
82	17.851
82.22	5.597
82.44	17.685
82.66	16.086
82.88	12.487
83.1	0.689
83.32	16.461
83.54	7.22
83.76	21.292
83.98	0.887
84.2	24.81
84.42	12.353
84.64	25.965
84.86	28.112
85.08	14.746
85.3	27.663
85.52	13.398
85.74	17.386
85.96	17.961
86.18	5.13
86.4	3.139
86.62	6.89
86.84	26.148
87.06	9.344
87.28	7.885
87.5	1.711
87.72	26.114
87.94	16.122
88.16	1.3
88.38	24.024
88.6	18.659
88.82	7.128
89.04	7.856
89.26	5.99
89.48	18.395
89.7	14.602
89.92	24.79
