Measurement: Powder, Xray Data XY Processed
Mineral: Enstatite
Rruff sample: R070641
Ideal chemistry: MgSiO_3_
Locality: Sri Lanka
Source: Jibamitra Ganguly
Description: Translucent colorless crystalline fragment
Diffraction sample description: Powder
Cell parameters: a: 18.2339(5) b: 8.8114(3) c: 5.1837(6) alpha: 90 beta: 90 gamma: 90 volume: 832.85(9) crystal system: orthorhombic
x	intensity
5	0
5.22	12.8345
5.44	10.6648
5.66	10.1176
5.88	3.04601
6.1	9.53513
6.32	27.6116
6.54	32.1769
6.76	8.10313
6.98	1.10913
7.2	10.3691
7.42	7.47589
7.64	4.76396
7.86	7.46216
8.08	16.9684
8.3	12.2146
8.52	9.33903
8.74	23.9331
8.96	18.388
9.18	22.186
9.4	17.2139
9.62	2.78862
9.84	16.6117
10.06	4.87575
10.28	33.6379
10.5	16.107
10.72	5.42149
10.94	4.65953
11.16	9.52502
11.38	15.0505
11.6	13.1123
11.82	1.26923
12.04	29.9428
12.26	0.025955
12.48	19.9975
12.7	1.11478
12.92	19.3865
13.14	8.76908
13.36	9.60605
13.58	22.7469
13.8	25.7293
14.02	69.9868
14.24	0.611763
14.46	13.2953
14.68	5.06682
14.9	14.5835
15.12	17.8714
15.34	17.9063
15.56	0.721359
15.78	13.1455
16	4.4322
16.22	7.23783
16.44	17.198
16.66	10.5465
16.88	21.0308
17.1	5.34879
17.32	21.7319
17.54	8.33543
17.76	6.05438
17.98	13.0751
18.2	8.70219
18.42	26.9362
18.64	19.6854
18.86	2.3952
19.08	31.4454
19.3	15.0537
19.52	8.19548
19.74	13.1169
19.96	9.0884
20.18	112.32
20.4	4.73343
20.62	12.438
20.84	22.6737
21.06	15.201
21.28	20.3842
21.5	13.3086
21.72	0.496971
21.94	23.0559
22.16	24.6643
22.38	23.3516
22.6	19.0449
22.82	0.880268
23.04	19.9077
23.26	13.5765
23.48	2.87011
23.7	0.175289
23.92	4.96371
24.14	11.3637
24.36	16.3864
24.58	7.1144
24.8	5.95272
25.02	24.4162
25.24	21.8699
25.46	17.0657
25.68	30.0754
25.9	19.057
26.12	17.9365
26.34	1.68387
26.56	9.73012
26.78	15.3333
27	70.9893
27.22	13.6585
27.44	4.71355
27.66	28.0714
27.88	15.7816
28.1	183.214
28.32	217.063
28.54	21.6152
28.76	2.0854
28.98	13.1255
29.2	9.96595
29.42	23.5513
29.64	0.874809
29.86	11.7299
30.08	3.38774
30.3	26.2124
30.52	30.1712
30.74	8.04218
30.96	27.7908
31.18	365.574
31.4	26.7955
31.62	28.427
31.84	9.57371
32.06	3.47438
32.28	8.49338
32.5	1.23753
32.72	16.081
32.94	16.2897
33.16	45.4771
33.38	3.77928
33.6	0.867401
33.82	5.8711
34.04	13.3517
34.26	4.39935
34.48	1.06416
34.7	14.2441
34.92	28.1056
35.14	61.1585
35.36	25.1886
35.58	46.178
35.8	10.6333
36.02	56.8768
36.24	13.7047
36.46	65.0152
36.68	23.0546
36.9	4.85508
37.12	17.0002
37.34	2.30804
37.56	8.10881
37.78	49.8426
38	10.5599
38.22	22.1773
38.44	6.41385
38.66	0.667419
38.88	15.4981
39.1	7.29402
39.32	4.00951
39.54	26.6124
39.76	2.55194
39.98	25.867
40.2	29.8741
40.42	25.166
40.64	14.4338
40.86	7.49367
41.08	21.7464
41.3	27.2709
41.52	11.3803
41.74	8.41806
41.96	7.92483
42.18	10.238
42.4	14.9002
42.62	10.327
42.84	30.004
43.06	19.6923
43.28	38.1519
43.5	35.2767
43.72	25.7278
43.94	10.6318
44.16	5.14757
44.38	13.4898
44.6	6.65753
44.82	8.10868
45.04	1.69183
45.26	11.3348
45.48	15.5625
45.7	34.5248
45.92	27.9504
46.14	3.85682
46.36	17.8322
46.58	36.5625
46.8	9.20099
47.02	17.5431
47.24	25.5009
47.46	16.3822
47.68	13.3573
47.9	11.1725
48.12	21.2562
48.34	13.9168
48.56	10.4668
48.78	19.8455
49	11.4156
49.22	4.99033
49.44	24.3715
49.66	25.1188
49.88	2.07739
50.1	9.15296
50.32	13.1852
50.54	9.69319
50.76	17.7729
50.98	11.9399
51.2	35.5873
51.42	11.628
51.64	1.3383
51.86	9.24141
52.08	10.5161
52.3	12.7429
52.52	23.9219
52.74	20.0031
52.96	23.1486
53.18	17.8084
53.4	15.7092
53.62	16.8452
53.84	9.1989
54.06	19.7945
54.28	11.9491
54.5	15.4324
54.72	8.36222
54.94	13.4586
55.16	6.37836
55.38	2.8175
55.6	15.3761
55.82	25.9015
56.04	11.9611
56.26	7.03688
56.48	4.62043
56.7	20.6862
56.92	9.66596
57.14	0.256332
57.36	9.80499
57.58	36.2777
57.8	17.7417
58.02	7.97561
58.24	40.9869
58.46	19.1908
58.68	1.68131
58.9	31.3055
59.12	9.57369
59.34	4.86918
59.56	19.0024
59.78	3.17065
60	0.010122
60.22	0.657902
60.44	10.3234
60.66	19.1489
60.88	38.2738
61.1	20.4007
61.32	9.06377
61.54	14.0408
61.76	13.9101
61.98	8.04679
62.2	3.05953
62.42	28.1105
62.64	34.7157
62.86	9.80362
63.08	17.342
63.3	124.534
63.52	48.3413
63.74	18.6757
63.96	13.4755
64.18	5.35926
64.4	8.57632
64.62	17.8041
64.84	7.07299
65.06	18.5784
65.28	6.70739
65.5	7.69996
65.72	7.8649
65.94	13.7443
66.16	9.06108
66.38	11.418
66.6	10.5191
66.82	9.48333
67.04	23.5055
67.26	35.2282
67.48	34.3009
67.7	12.3349
67.92	3.95278
68.14	19.9047
68.36	8.43845
68.58	4.222
68.8	4.07949
69.02	5.52763
69.24	4.78688
69.46	3.06902
69.68	3.60013
69.9	3.99928
70.12	12.4119
70.34	3.84596
70.56	12.3966
70.78	9.41095
71	8.12159
71.22	9.70197
71.44	24.5275
71.66	14.7506
71.88	21.6411
72.1	8.52927
72.32	35.7014
72.54	16.5944
72.76	9.48409
72.98	11.06
73.2	21.2724
73.42	9.5379
73.64	8.21918
73.86	8.46152
74.08	1.33807
74.3	0.478346
74.52	11.4112
74.74	7.99351
74.96	29.1325
75.18	17.098
75.4	14.9375
75.62	9.89795
75.84	4.75814
76.06	6.53832
76.28	3.50126
76.5	14.5023
76.72	2.66777
76.94	8.94328
77.16	9.39593
77.38	2.97148
77.6	7.09708
77.82	7.37573
78.04	11.3236
78.26	20.2982
78.48	13.2965
78.7	3.46534
78.92	0.253544
79.14	18.4395
79.36	1.24953
79.58	0.054129
79.8	7.79328
80.02	0.00787
80.24	16.8709
80.46	4.86495
80.68	12.0154
80.9	7.1281
81.12	8.47012
81.34	7.42736
81.56	12.7079
81.78	9.20696
82	5.3114
82.22	6.24123
82.44	9.43934
82.66	3.38926
82.88	9.5419
83.1	17.472
83.32	12.5032
83.54	10.1062
83.76	10.971
83.98	6.48327
84.2	15.4622
84.42	5.35116
84.64	10.9679
84.86	9.40951
85.08	12.489
85.3	15.3561
85.52	6.34265
85.74	5.66524
85.96	21.7225
86.18	8.78421
86.4	1.82302
86.62	10.8682
86.84	3.48953
87.06	12.7548
87.28	10.7174
87.5	12.0216
87.72	9.24588
87.94	17.6231
88.16	13.6109
88.38	10.1068
88.6	26.4129
88.82	11.697
89.04	17.7894
89.26	25.1468
89.48	1.99978
89.7	4.48056
89.92	8.38088
