Measurement: Powder, Xray Data XY Processed
Mineral: Eosphorite
Rruff sample: R050557
Ideal chemistry: Mn^2+^AlPO_4_(OH)_2_H_2_O
Locality: Minas Gerais, Brazil
Source: Dave Bunk Minerals
Description: A radial group of light brown bladed crystals
Diffraction sample description: Powder
Measured chemistry: (Mn^2+^_0.46_Fe^2+^_0.32_Ca_0.16_Mg_0.06_)_Σ=1_Al_1.00_(P_1.00_O_4_)(OH)_2_·H_2_O
Cell parameters: a: 6.951(2) b: 10.447(2) c: 13.495(3) alpha: 90. beta: 90. gamma: 90. volume: 980.2(3) crystal system: orthorhombic
x	intensity
5	0
5.22	14
5.44	0.467
5.66	10.238
5.88	20.522
6.1	11.278
6.32	5.05
6.54	11.15
6.76	4.232
6.98	14.106
7.2	27.164
7.42	17.11
7.64	15.079
7.86	12.887
8.08	12.179
8.3	0.883
8.52	2.437
8.74	16.953
8.96	14.766
9.18	13.026
9.4	6.226
9.62	23.828
9.84	10.261
10.06	6.749
10.28	5.062
10.5	14.063
10.72	26.435
10.94	20.842
11.16	15.897
11.38	3.969
11.6	2.587
11.82	19.521
12.04	1.133
12.26	8.506
12.48	18.886
12.7	10.665
12.92	5.534
13.14	75.758
13.36	29.171
13.58	9.188
13.8	14.314
14.02	10.617
14.24	2.526
14.46	15.664
14.68	17.85
14.9	24.374
15.12	5.756
15.34	10.556
15.56	13.812
15.78	17.555
16	11.641
16.22	6.256
16.44	13.843
16.66	21.841
16.88	7.167
17.1	13.887
17.32	6.492
17.54	13.236
17.76	17.637
17.98	4.798
18.2	18.041
18.42	10.505
18.64	15.893
18.86	16.986
19.08	3.042
19.3	1.459
19.52	15.036
19.74	21.095
19.96	24.817
20.18	32.1
20.4	8.218
20.62	0.751
20.84	18.09
21.06	19.312
21.28	1.806
21.5	44.697
21.72	18.05
21.94	9.587
22.16	10.177
22.38	16.295
22.6	1.807
22.82	21.318
23.04	18.135
23.26	12.66
23.48	14.341
23.7	3.761
23.92	5.575
24.14	6.844
24.36	4.53
24.58	7.031
24.8	2.268
25.02	34.967
25.24	31.148
25.46	8.657
25.68	39.087
25.9	0.032
26.12	23.357
26.34	8.983
26.56	19.491
26.78	16.012
27	12.481
27.22	3.948
27.44	4.866
27.66	9.398
27.88	8.429
28.1	3.319
28.32	12.883
28.54	26.095
28.76	3.532
28.98	23.314
29.2	0.709
29.42	5.553
29.64	11.28
29.86	7.258
30.08	9.107
30.3	13.059
30.52	4.803
30.74	34.201
30.96	21.335
31.18	6.98
31.4	10.098
31.62	198.643
31.84	47.009
32.06	18.135
32.28	21.102
32.5	13.971
32.72	5.003
32.94	14.343
33.16	20.624
33.38	0.135
33.6	4.043
33.82	6.282
34.04	20.262
34.26	2.922
34.48	24.768
34.7	5.705
34.92	2.452
35.14	18.731
35.36	17.733
35.58	7.516
35.8	6.087
36.02	6.862
36.24	3.215
36.46	7.679
36.68	28.58
36.9	67.54
37.12	22.082
37.34	17.922
37.56	64.849
37.78	23.639
38	16.026
38.22	8.442
38.44	0.256
38.66	9.099
38.88	16.335
39.1	14.441
39.32	3.996
39.54	12.819
39.76	16.305
39.98	8.464
40.2	23.569
40.42	14.872
40.64	9.692
40.86	15.703
41.08	17.364
41.3	18.225
41.52	18.151
41.74	6.552
41.96	18.202
42.18	7.623
42.4	15.602
42.62	3.251
42.84	8.439
43.06	0.031
43.28	25.576
43.5	17.001
43.72	4.362
43.94	16.19
44.16	4.604
44.38	14.875
44.6	3.232
44.82	10.618
45.04	13.919
45.26	20.091
45.48	44.888
45.7	28.347
45.92	24.39
46.14	3.498
46.36	16.886
46.58	5.307
46.8	9.843
47.02	5.423
47.24	22.127
47.46	28.869
47.68	21.666
47.9	9.078
48.12	37.26
48.34	21.415
48.56	12.067
48.78	7.098
49	14.44
49.22	13.096
49.44	5.099
49.66	16.092
49.88	15.981
50.1	3.357
50.32	17.954
50.54	13.598
50.76	6.415
50.98	8.852
51.2	18.997
51.42	26.618
51.64	30.345
51.86	15.382
52.08	9.493
52.3	7.528
52.52	28.04
52.74	31.769
52.96	38.393
53.18	8.196
53.4	4.2
53.62	6
53.84	5.804
54.06	14.057
54.28	14.365
54.5	22.948
54.72	28.305
54.94	0.839
55.16	7.2
55.38	18.296
55.6	3.721
55.82	16.778
56.04	0.442
56.26	29.874
56.48	15.871
56.7	20.03
56.92	20.816
57.14	16.021
57.36	14.622
57.58	11.162
57.8	5.416
58.02	30.389
58.24	27.101
58.46	10.176
58.68	11.566
58.9	5.722
59.12	20.108
59.34	6.989
59.56	7.47
59.78	20.299
60	4.213
60.22	20.246
60.44	54.6
60.66	47.013
60.88	12.869
61.1	26.705
61.32	5.104
61.54	13.755
61.76	23.146
61.98	13.675
62.2	14.609
62.42	15.555
62.64	19.457
62.86	0.824
63.08	30.882
63.3	20.017
63.52	7.567
63.74	18.594
63.96	8.303
64.18	6.472
64.4	6.037
64.62	4.328
64.84	14.658
65.06	20.427
65.28	1.66
65.5	12.82
65.72	8.778
65.94	10.227
66.16	38.014
66.38	19.798
66.6	28.114
66.82	6.859
67.04	5.86
67.26	15.073
67.48	12.029
67.7	17.6
67.92	7.891
68.14	1.325
68.36	33.049
68.58	9.176
68.8	4.379
69.02	2.285
69.24	13.728
69.46	10.645
69.68	13.291
69.9	8.225
70.12	8.869
70.34	0.473
70.56	4.223
70.78	7.347
71	0.66
71.22	17.591
71.44	0.701
71.66	10.447
71.88	9.601
72.1	6.627
72.32	22.656
72.54	18.83
72.76	19.548
72.98	4.558
73.2	8.418
73.42	6.728
73.64	7.455
73.86	16.277
74.08	16.009
74.3	0.101
74.52	0.873
74.74	3.514
74.96	0.887
75.18	4.835
75.4	17.549
75.62	11.083
75.84	27.169
76.06	18.681
76.28	10.068
76.5	2.459
76.72	24.813
76.94	15.888
77.16	16.899
77.38	16.645
77.6	23.622
77.82	6.775
78.04	15.281
78.26	4.063
78.48	2.125
78.7	22.316
78.92	14.258
79.14	9.885
79.36	38.055
79.58	16.482
79.8	15.252
80.02	18.293
80.24	16.391
80.46	8.898
80.68	12.628
80.9	15.463
81.12	21.388
81.34	1.175
81.56	19.374
81.78	13.879
82	21.269
82.22	13.175
82.44	8.05
82.66	14.069
82.88	14.096
83.1	4.937
83.32	13.888
83.54	3.341
83.76	5.144
83.98	9.266
84.2	17.132
84.42	0.504
84.64	28.879
84.86	2.124
85.08	8.524
85.3	20.214
85.52	8.871
85.74	16.2
85.96	0.334
86.18	1.282
86.4	31.333
86.62	5.589
86.84	15.591
87.06	24.763
87.28	10.647
87.5	5.631
87.72	9.723
87.94	13.805
88.16	18.213
88.38	23.683
88.6	24.977
88.82	12.979
89.04	9.725
89.26	17.6
89.48	9.726
89.7	15.232
89.92	13.231
