Measurement: Powder, Xray Data XY Processed
Mineral: Eosphorite
Rruff sample: R060293
Ideal chemistry: Mn^2+^AlPO_4_(OH)_2_H_2_O
Locality: Mawi area, Nuristan, Laghman Province, Afghanistan
Source: Herb Obodda
Description: Orange brown prismatic crystal
Diffraction sample description: Powder
Measured chemistry: (Mn^2+^_0.67_Fe^2+^_0.30_Ca_0.03_)_Σ=1_Al_1.00_(P_1.00_O_4_)(OH)_2_·H_2_O
Cell parameters: a: 6.9364(4) b: 10.4428(8) c: 13.488(1) alpha: 90. beta: 90. gamma: 90. volume: 977.02(8) crystal system: orthorhombic
x	intensity
5	0
5.22	13.629
5.44	15.399
5.66	7.984
5.88	12.871
6.1	6.268
6.32	8.96
6.54	25.866
6.76	0.317
6.98	1.391
7.2	6.644
7.42	13.854
7.64	6.731
7.86	14.102
8.08	17.781
8.3	13.224
8.52	4.575
8.74	1.975
8.96	19.515
9.18	8.828
9.4	16.671
9.62	9.886
9.84	18.176
10.06	12.489
10.28	18.082
10.5	21.937
10.72	21.961
10.94	11.045
11.16	9.214
11.38	6.466
11.6	4.754
11.82	14.601
12.04	22.395
12.26	13.01
12.48	4.739
12.7	25.154
12.92	14.237
13.14	99.746
13.36	13.666
13.58	22.003
13.8	13.247
14.02	1.333
14.24	11.32
14.46	12.385
14.68	4.738
14.9	15.012
15.12	11.277
15.34	9.436
15.56	16.894
15.78	5.987
16	1.021
16.22	24.103
16.44	7.842
16.66	18.311
16.88	12.325
17.1	34.872
17.32	14.541
17.54	8.785
17.76	1.415
17.98	16.382
18.2	33.168
18.42	17.168
18.64	0.392
18.86	2.363
19.08	6.008
19.3	14.988
19.52	4.276
19.74	8.569
19.96	7.932
20.18	25.866
20.4	13.989
20.62	17.147
20.84	14.839
21.06	12.924
21.28	1.515
21.5	45.251
21.72	19.628
21.94	18.414
22.16	12.893
22.38	11.179
22.6	24.275
22.82	6.848
23.04	11.918
23.26	1.355
23.48	16.884
23.7	0.471
23.92	7.284
24.14	4.134
24.36	0.781
24.58	1.433
24.8	5.464
25.02	10.936
25.24	18.859
25.46	19.829
25.68	48.642
25.9	7.86
26.12	37.903
26.34	8.323
26.56	9.061
26.78	8.321
27	15.868
27.22	10.08
27.44	6.281
27.66	8.214
27.88	16.412
28.1	13.201
28.32	2.937
28.54	13.071
28.76	6.657
28.98	29.86
29.2	2.868
29.42	30.125
29.64	11.269
29.86	12.21
30.08	26.163
30.3	1.911
30.52	14.356
30.74	23.934
30.96	20.454
31.18	12.693
31.4	8.056
31.62	116.367
31.84	54.072
32.06	22.46
32.28	7.644
32.5	13.099
32.72	14.467
32.94	8.928
33.16	13.781
33.38	12.998
33.6	14.462
33.82	0.319
34.04	21.404
34.26	20.687
34.48	22.348
34.7	3.1
34.92	8.772
35.14	22.338
35.36	10.628
35.58	3.173
35.8	7.136
36.02	14.582
36.24	4.412
36.46	18.381
36.68	14.807
36.9	39.199
37.12	9.93
37.34	6.266
37.56	76.469
37.78	13.352
38	3.704
38.22	11.825
38.44	10.317
38.66	23.322
38.88	9.243
39.1	1.68
39.32	14.2
39.54	1.402
39.76	9.279
39.98	10.237
40.2	22.132
40.42	22.399
40.64	5.504
40.86	11.227
41.08	6.183
41.3	24.293
41.52	0.711
41.74	20.752
41.96	18.795
42.18	26.019
42.4	24.748
42.62	18.598
42.84	15.292
43.06	11.058
43.28	29.858
43.5	37.066
43.72	21.779
43.94	33.236
44.16	12.183
44.38	2.977
44.6	11.704
44.82	6.393
45.04	5.089
45.26	3.912
45.48	32.086
45.7	17.036
45.92	11.781
46.14	3.643
46.36	17.497
46.58	6.287
46.8	15.217
47.02	12.201
47.24	18.268
47.46	34.329
47.68	16.869
47.9	8.613
48.12	23.684
48.34	21.363
48.56	29.241
48.78	1.531
49	4.201
49.22	8.362
49.44	8.479
49.66	12.361
49.88	8.952
50.1	20.358
50.32	15.327
50.54	2.397
50.76	10.013
50.98	7.541
51.2	14.809
51.42	17.889
51.64	19.762
51.86	13.647
52.08	3.056
52.3	6.543
52.52	16.949
52.74	27.7
52.96	14.91
53.18	2.608
53.4	18.943
53.62	14.568
53.84	25.587
54.06	4.546
54.28	1.059
54.5	14.678
54.72	14.744
54.94	13.599
55.16	7.082
55.38	12.928
55.6	9.021
55.82	15.256
56.04	23.898
56.26	17.814
56.48	7.99
56.7	9.813
56.92	16.009
57.14	25.891
57.36	1.399
57.58	16.8
57.8	23.883
58.02	25.324
58.24	14.302
58.46	5.8
58.68	23.479
58.9	18.085
59.12	1.282
59.34	5.48
59.56	19.805
59.78	20.856
60	37.86
60.22	13.665
60.44	30.803
60.66	55.837
60.88	8.749
61.1	24.71
61.32	4.979
61.54	3.567
61.76	24.954
61.98	6.174
62.2	3.382
62.42	4.523
62.64	10.819
62.86	16.989
63.08	5.691
63.3	0.744
63.52	17.092
63.74	20.045
63.96	14.612
64.18	9.754
64.4	1.867
64.62	8.48
64.84	11.023
65.06	4.635
65.28	6.612
65.5	4.087
65.72	4.004
65.94	5.894
66.16	26.566
66.38	23.693
66.6	24.853
66.82	9.809
67.04	16.41
67.26	1.055
67.48	25.732
67.7	11.534
67.92	13.276
68.14	13.576
68.36	23.913
68.58	9.991
68.8	1.952
69.02	7.852
69.24	12.604
69.46	10.127
69.68	12.221
69.9	3.082
70.12	4.382
70.34	2.53
70.56	0.225
70.78	20.973
71	27.307
71.22	17.425
71.44	9.821
71.66	3.174
71.88	3.694
72.1	21.737
72.32	20.629
72.54	20.287
72.76	29.602
72.98	9.153
73.2	2.043
73.42	29.9
73.64	30.767
73.86	20.22
74.08	15.518
74.3	14.747
74.52	23.129
74.74	21.414
74.96	9.201
75.18	0.29
75.4	21.809
75.62	13.629
75.84	15.315
76.06	7.598
76.28	26.668
76.5	17.052
76.72	23.164
76.94	10.285
77.16	10.187
77.38	13.196
77.6	4.956
77.82	16.528
78.04	21.7
78.26	21.457
78.48	8.559
78.7	22.88
78.92	18.658
79.14	15.7
79.36	8.924
79.58	1.283
79.8	5.446
80.02	24.724
80.24	5.246
80.46	10.335
80.68	19.664
80.9	13.774
81.12	2.764
81.34	18.194
81.56	8.379
81.78	10.487
82	21.686
82.22	18.833
82.44	1.197
82.66	10.126
82.88	1.232
83.1	5.021
83.32	7.932
83.54	2.414
83.76	12.132
83.98	21.434
84.2	6.872
84.42	14.523
84.64	18.253
84.86	7.993
85.08	20.486
85.3	9.044
85.52	13.898
85.74	17.531
85.96	11.627
86.18	8.443
86.4	22.943
86.62	15.15
86.84	2.534
87.06	0.758
87.28	2.826
87.5	13.526
87.72	23.961
87.94	8.022
88.16	25.727
88.38	11.949
88.6	16.437
88.82	12.281
89.04	16.654
89.26	27.853
89.48	35.548
89.7	30.731
89.92	1.829
