Measurement: Powder, Xray Data XY Processed
Mineral: Eosphorite
Rruff sample: R050570
Ideal chemistry: Mn^2+^AlPO_4_(OH)_2_H_2_O
Locality: Lavra da Ilha, Minas Gerais, Brazil
Source: University of Arizona Mineral Museum
Description: Pale brown prismatic crystals with wedge-shaped terminations
Diffraction sample description: Powder
Measured chemistry: (Mn_0.42_Fe^2+^_0.40_Ca_0.13_Mg_0.05_)Al(PO_4_)((OH)_0.96_F_0.04_)_2_Î‡H_2_O
Cell parameters: a: 6.944(2) b: 10.436(2) c: 13.492(2) alpha: 90 beta: 90 gamma: 90 volume: 977.73(4) crystal system: orthorhombic
x	intensity
5	0
5.22	0.415
5.44	5.622
5.66	16.198
5.88	19.411
6.1	1.928
6.32	13.973
6.54	0.866
6.76	15.637
6.98	24.252
7.2	5.715
7.42	21.66
7.64	9.707
7.86	15.865
8.08	4.565
8.3	15.57
8.52	16.094
8.74	11.186
8.96	4.519
9.18	14.73
9.4	13.711
9.62	14.031
9.84	12.988
10.06	0.138
10.28	30.354
10.5	26.305
10.72	30.855
10.94	28.931
11.16	5.962
11.38	5.41
11.6	22.149
11.82	5.848
12.04	4.508
12.26	15.711
12.48	9.329
12.7	14.116
12.92	26.918
13.14	352.988
13.36	14.716
13.58	5.81
13.8	2.078
14.02	31.61
14.24	7.633
14.46	1.549
14.68	16.571
14.9	25.917
15.12	11.636
15.34	10.478
15.56	10.896
15.78	31.731
16	9.995
16.22	12.119
16.44	12.349
16.66	54.833
16.88	50.608
17.1	29.697
17.32	10.505
17.54	16.042
17.76	1.805
17.98	15.138
18.2	48.605
18.42	17.472
18.64	0.2
18.86	15.278
19.08	4.385
19.3	10.949
19.52	12.74
19.74	6.791
19.96	9.852
20.18	131.029
20.4	9.077
20.62	15.759
20.84	15.24
21.06	3.221
21.28	0.636
21.5	95.097
21.72	1.366
21.94	15.143
22.16	16.543
22.38	17.716
22.6	8.041
22.82	16.286
23.04	20.792
23.26	9.007
23.48	11.096
23.7	5.728
23.92	13.486
24.14	4.431
24.36	12.712
24.58	15.25
24.8	11.649
25.02	89.69
25.24	16.003
25.46	13.089
25.68	23.765
25.9	4.896
26.12	58.479
26.34	64.168
26.56	17.558
26.78	29.333
27	13.494
27.22	5.739
27.44	7.299
27.66	8.977
27.88	7.901
28.1	15.151
28.32	17.721
28.54	28.386
28.76	31.7
28.98	33.174
29.2	34.427
29.42	12.149
29.64	2.802
29.86	11.658
30.08	0.391
30.3	17.947
30.52	11.575
30.74	26.323
30.96	9.82
31.18	23.747
31.4	12.774
31.62	347.247
31.84	14.595
32.06	14.78
32.28	35.737
32.5	6.982
32.72	5.423
32.94	22.942
33.16	6.121
33.38	15.457
33.6	20.033
33.82	19.447
34.04	15.873
34.26	19.101
34.48	4.213
34.7	0.085
34.92	15.275
35.14	5.23
35.36	17.884
35.58	7.916
35.8	14.961
36.02	10.677
36.24	0.102
36.46	15.799
36.68	32.66
36.9	98.832
37.12	22.996
37.34	42.364
37.56	39.831
37.78	29.632
38	15.837
38.22	25.789
38.44	11.294
38.66	15.075
38.88	3.882
39.1	12.678
39.32	28.134
39.54	12.048
39.76	4.375
39.98	60.413
40.2	41.227
40.42	11.601
40.64	13.836
40.86	7.663
41.08	17.631
41.3	4.391
41.52	15.169
41.74	5.198
41.96	7.254
42.18	14.725
42.4	24.738
42.62	1.319
42.84	5.869
43.06	1.491
43.28	35.738
43.5	49.668
43.72	28.273
43.94	35.891
44.16	9.883
44.38	18.148
44.6	12.507
44.82	3.761
45.04	8.06
45.26	8.738
45.48	93.865
45.7	15.593
45.92	3.154
46.14	19.148
46.36	7.95
46.58	4.132
46.8	13.694
47.02	0.571
47.24	15.204
47.46	22.767
47.68	4.643
47.9	20.34
48.12	31.414
48.34	25.557
48.56	27.256
48.78	10.899
49	11.348
49.22	29.148
49.44	7.759
49.66	11.211
49.88	10.428
50.1	3.815
50.32	26.336
50.54	24.774
50.76	16.573
50.98	7.574
51.2	3.267
51.42	16.387
51.64	36.854
51.86	7.012
52.08	9.033
52.3	24.013
52.52	34.525
52.74	13.616
52.96	7.808
53.18	27.376
53.4	27.301
53.62	3.347
53.84	21.585
54.06	11.312
54.28	27.554
54.5	34.235
54.72	22.127
54.94	16.723
55.16	23.768
55.38	7.912
55.6	14.043
55.82	22.953
56.04	23.08
56.26	18.168
56.48	24.402
56.7	25.479
56.92	22.041
57.14	1.85
57.36	11.078
57.58	18.252
57.8	13.401
58.02	33.774
58.24	23.095
58.46	21.09
58.68	11.658
58.9	16.558
59.12	10.623
59.34	8.818
59.56	13.059
59.78	20.729
60	31.416
60.22	36.052
60.44	97.09
60.66	69.035
60.88	24.583
61.1	13.361
61.32	12.508
61.54	4.281
61.76	12.865
61.98	10.672
62.2	2.957
62.42	22.252
62.64	4.533
62.86	7.975
63.08	16.391
63.3	31.848
63.52	18.838
63.74	7.335
63.96	27.869
64.18	30.018
64.4	16.599
64.62	4.337
64.84	27.596
65.06	12.737
65.28	7.799
65.5	15.023
65.72	16.657
65.94	15.855
66.16	11.844
66.38	21.955
66.6	22.019
66.82	1.501
67.04	20.809
67.26	9.215
67.48	8.357
67.7	20.834
67.92	20.834
68.14	13.551
68.36	13.319
68.58	18.441
68.8	1.719
69.02	3.267
69.24	7.438
69.46	22.02
69.68	14.085
69.9	17.769
70.12	15.832
70.34	29.752
70.56	19.997
70.78	14.738
71	8.804
71.22	8.494
71.44	17.261
71.66	16.791
71.88	24.222
72.1	5.678
72.32	9.747
72.54	18.86
72.76	16.461
72.98	11.255
73.2	14.898
73.42	30.714
73.64	27.343
73.86	11.019
74.08	7.983
74.3	9.871
74.52	17.222
74.74	13.96
74.96	12.581
75.18	0.15
75.4	6.736
75.62	25.445
75.84	3.925
76.06	24.664
76.28	2.2
76.5	26.192
76.72	19.6
76.94	30.165
77.16	15.024
77.38	9.924
77.6	12.241
77.82	21.196
78.04	15.152
78.26	13.245
78.48	12.658
78.7	2.942
78.92	8.082
79.14	11.129
79.36	2.706
79.58	6.091
79.8	1.007
80.02	16.53
80.24	17.195
80.46	22.721
80.68	13.58
80.9	15.294
81.12	17.978
81.34	2.658
81.56	18.26
81.78	7.11
82	10.305
82.22	10.503
82.44	5.799
82.66	16.054
82.88	20.901
83.1	2.32
83.32	11.052
83.54	28.092
83.76	18.254
83.98	14.495
84.2	0.71
84.42	11.126
84.64	15.834
84.86	26.527
85.08	15.513
85.3	11.952
85.52	20.336
85.74	13.162
85.96	13.43
86.18	11.467
86.4	24.854
86.62	13.399
86.84	35.558
87.06	5.245
87.28	11.463
87.5	13.946
87.72	10.848
87.94	15.461
88.16	0.069
88.38	22.07
88.6	9.051
88.82	1.78
89.04	36.525
89.26	0.881
89.48	3.366
89.7	12.888
89.92	21.081
