Measurement: Powder, Xray Data XY Processed
Mineral: Eosphorite
Rruff sample: R061055
Ideal chemistry: Mn^2+^AlPO_4_(OH)_2_H_2_O
Locality: Mendes Pimental Pegmatite, Minas Gerais, Brazil
Source: Royal Ontario Museum
Description: Brown pyramidal crystal
Diffraction sample description: Powder
Measured chemistry: (Mn^2+^_0.78_Fe_0.21_Ca_0.01_)_Σ=1_Al_1.00_P_1.00_O_4_((OH)_1.85_F_0.15_)_Σ=2_·H_2_O; H_2_O estimated by difference; OH by charge balance
Cell parameters: a: 6.9235(9) b: 10.445(1) c: 13.484(2) alpha: 90 beta: 90 gamma: 90 volume: 975.1(1) crystal system: orthorhombic
x	intensity
5	0
5.22	12.1155
5.44	1.31321
5.66	5.79164
5.88	1.68017
6.1	12.6192
6.32	13.6333
6.54	1.87032
6.76	16.36
6.98	13.6307
7.2	32.1914
7.42	7.95601
7.64	7.29593
7.86	9.02306
8.08	7.21122
8.3	10.3779
8.52	8.53801
8.74	7.55081
8.96	10.9483
9.18	23.6286
9.4	3.90807
9.62	8.23809
9.84	12.0137
10.06	1.84764
10.28	7.8747
10.5	4.1732
10.72	17.465
10.94	9.71037
11.16	20.5239
11.38	12.575
11.6	13.7227
11.82	8.1318
12.04	13.6619
12.26	9.59108
12.48	16.5975
12.7	5.37643
12.92	0.692425
13.14	105.215
13.36	28.1414
13.58	4.94947
13.8	20.8583
14.02	7.71843
14.24	9.35547
14.46	11.5706
14.68	8.88375
14.9	21.9796
15.12	10.3817
15.34	2.91727
15.56	16.0013
15.78	0.948174
16	1.68959
16.22	3.03902
16.44	1.50074
16.66	25.4742
16.88	15.0921
17.1	24.1395
17.32	14.4979
17.54	15.4039
17.76	29.0344
17.98	3.88238
18.2	25.5698
18.42	1.20551
18.64	2.5667
18.86	18.1709
19.08	18.3575
19.3	23.4269
19.52	8.42938
19.74	21.786
19.96	15.4319
20.18	29.3206
20.4	6.82806
20.62	25.125
20.84	8.30038
21.06	12.9326
21.28	8.51396
21.5	40.4231
21.72	12.7687
21.94	18.6742
22.16	16.3113
22.38	16.3326
22.6	10.4995
22.82	13.5636
23.04	7.93432
23.26	13.3041
23.48	28.099
23.7	14.655
23.92	3.18994
24.14	12.2724
24.36	0.827301
24.58	11.91
24.8	3.57834
25.02	28.9936
25.24	19.098
25.46	7.35318
25.68	17.4913
25.9	7.50314
26.12	46.8174
26.34	26.0303
26.56	8.91165
26.78	17.955
27	9.30885
27.22	19.8531
27.44	9.81374
27.66	8.77794
27.88	10.4264
28.1	10.0895
28.32	1.62562
28.54	26.8054
28.76	10.6455
28.98	38.9902
29.2	34.0003
29.42	2.7355
29.64	7.12478
29.86	2.32532
30.08	12.7758
30.3	15.595
30.52	12.8158
30.74	20.5801
30.96	34.1684
31.18	15.4522
31.4	10.0128
31.62	151.979
31.84	23.3303
32.06	13.8055
32.28	0.022617
32.5	1.90092
32.72	4.99278
32.94	10.1234
33.16	19.1587
33.38	3.43192
33.6	20.2046
33.82	14.2422
34.04	11.1377
34.26	21.8585
34.48	4.2278
34.7	5.36391
34.92	18.0494
35.14	25.8646
35.36	8.04376
35.58	11.8937
35.8	6.51764
36.02	1.71752
36.24	13.9812
36.46	12.7516
36.68	15.9618
36.9	55.7759
37.12	37.7903
37.34	22.562
37.56	37.3162
37.78	6.49314
38	34.9499
38.22	13.2845
38.44	11.7041
38.66	13.0294
38.88	10.2759
39.1	17.4552
39.32	8.31355
39.54	22.2713
39.76	14.1038
39.98	19.6237
40.2	24.4788
40.42	13.671
40.64	10.2136
40.86	4.31083
41.08	13.7771
41.3	0.987549
41.52	7.04761
41.74	7.36243
41.96	10.3269
42.18	1.88889
42.4	4.08783
42.62	7.49172
42.84	14.3157
43.06	11.8386
43.28	20.8741
43.5	13.5411
43.72	10.7518
43.94	35.6644
44.16	20.0964
44.38	22.9845
44.6	2.49352
44.82	19.5991
45.04	13.5382
45.26	22.723
45.48	32.5607
45.7	10.4971
45.92	9.71611
46.14	22.1659
46.36	6.37849
46.58	5.89771
46.8	6.61135
47.02	11.3498
47.24	19.508
47.46	2.82028
47.68	13.2497
47.9	1.95307
48.12	23.248
48.34	7.46084
48.56	35.4439
48.78	28.5909
49	9.33938
49.22	6.40947
49.44	6.25802
49.66	7.29168
49.88	4.45472
50.1	3.01348
50.32	2.24544
50.54	19.2975
50.76	4.88171
50.98	10.018
51.2	18.2354
51.42	20.1037
51.64	25.8298
51.86	3.13766
52.08	7.6811
52.3	8.31226
52.52	14.6169
52.74	18.4809
52.96	18.1924
53.18	4.76691
53.4	12.5002
53.62	3.49018
53.84	8.33657
54.06	7.36904
54.28	4.44562
54.5	10.8259
54.72	26.932
54.94	0.182533
55.16	12.0168
55.38	0.208946
55.6	10.1039
55.82	17.1149
56.04	13.4553
56.26	19.8376
56.48	4.66756
56.7	5.08786
56.92	2.83793
57.14	8.86348
57.36	12.1592
57.58	16.8831
57.8	1.44186
58.02	18.6242
58.24	1.98771
58.46	9.93648
58.68	10.1025
58.9	18.5427
59.12	23.9665
59.34	3.10211
59.56	11.1251
59.78	26.5412
60	33.1174
60.22	6.68778
60.44	16.6326
60.66	42.0189
60.88	27.9295
61.1	27.4137
61.32	5.561
61.54	1.57011
61.76	17.0165
61.98	0.931911
62.2	0.509457
62.42	3.35458
62.64	21.4545
62.86	17.4896
63.08	28.5906
63.3	25.7862
63.52	9.15434
63.74	4.58957
63.96	15.8692
64.18	14.1856
64.4	1.98992
64.62	12.2941
64.84	6.0797
65.06	3.08705
65.28	4.94232
65.5	11.2712
65.72	2.32078
65.94	13.1828
66.16	19.0383
66.38	14.4338
66.6	26.78
66.82	14.9432
67.04	20.5532
67.26	3.9579
67.48	15.231
67.7	1.77833
67.92	18.6574
68.14	0.302299
68.36	15.5479
68.58	9.07297
68.8	6.32123
69.02	22.5292
69.24	10.8598
69.46	3.021
69.68	11.8119
69.9	2.35891
70.12	8.28066
70.34	10.2644
70.56	6.42653
70.78	14.3074
71	3.00839
71.22	14.6219
71.44	3.48331
71.66	19.2849
71.88	1.69774
72.1	6.52794
72.32	16.5785
72.54	29.6056
72.76	21.3046
72.98	0.383114
73.2	17.553
73.42	19.54
73.64	11.533
73.86	11.1169
74.08	12.9121
74.3	17.3876
74.52	8.74571
74.74	18.7976
74.96	4.39772
75.18	1.1961
75.4	24.5033
75.62	14.347
75.84	13.4542
76.06	17.6829
76.28	24.3206
76.5	17.9881
76.72	21.9039
76.94	17.8033
77.16	17.3237
77.38	9.96456
77.6	7.64698
77.82	17.8689
78.04	2.40714
78.26	22.4117
78.48	1.50507
78.7	13.6527
78.92	10.192
79.14	25.4257
79.36	12.4937
79.58	10.797
79.8	20.7277
80.02	10.0837
80.24	15.8302
80.46	5.43679
80.68	0.562634
80.9	21.6244
81.12	0.57373
81.34	7.51157
81.56	10.4093
81.78	6.74292
82	8.36165
82.22	10.1668
82.44	1.82462
82.66	21.9999
82.88	22.1459
83.1	3.76787
83.32	2.99351
83.54	7.09116
83.76	32.5544
83.98	1.25677
84.2	9.8451
84.42	13.8376
84.64	9.61788
84.86	27.9743
85.08	7.62582
85.3	9.59301
85.52	1.73615
85.74	11.2262
85.96	10.4598
86.18	12.1056
86.4	16.911
86.62	7.83342
86.84	5.8376
87.06	8.37479
87.28	4.99373
87.5	16.5275
87.72	6.5892
87.94	10.7409
88.16	11.3675
88.38	1.71005
88.6	8.40906
88.82	23.1749
89.04	9.78727
89.26	12.2894
89.48	10.5756
89.7	18.2013
89.92	19.6744
