Measurement: Powder, Xray Data XY Processed
Mineral: Ephesite
Rruff sample: R060848
Ideal chemistry: NaLiAl_2_(Si_2_Al_2_)O_10_(OH)_2_
Locality: Postmaasburg, South Africa
Source: Michael Scott
Description: Pale pink hexagonal mica books, polytype 2M1
Diffraction sample description: Powder
Measured chemistry: Na_1.00_Li_1.00_Al_2.00_(Si_2.00_Al_2.00_)O_10_(OH)_2_; trace amounts of Fe and Ca; Li and OH assumed by stoichiometry
Cell parameters: a: 5.1261(8) b: 8.880(2) c: 19.3124(7) alpha: 89.946(6) beta: 95.116(8) gamma: 89.96(2) volume: 875.6(1) crystal system: triclinic
x	intensity
5	0
5.22	15.7103
5.44	14.7464
5.66	8.0683
5.88	11.1644
6.1	28.857
6.32	7.84146
6.54	26.2995
6.76	3.84362
6.98	6.03795
7.2	13.5085
7.42	21.4349
7.64	6.66741
7.86	11.7522
8.08	7.81072
8.3	50.8038
8.52	6.08163
8.74	12.9503
8.96	61.9934
9.18	1419.1
9.4	73.688
9.62	13.542
9.84	4.98238
10.06	19.0565
10.28	11.3281
10.5	4.23824
10.72	2.98015
10.94	11.0222
11.16	18.4793
11.38	5.73252
11.6	4.9461
11.82	9.56349
12.04	8.33659
12.26	8.28556
12.48	8.59933
12.7	31.7003
12.92	13.1091
13.14	1.12438
13.36	6.28171
13.58	12.1025
13.8	5.90564
14.02	4.61982
14.24	4.39516
14.46	6.2806
14.68	3.66124
14.9	8.40117
15.12	5.28791
15.34	11.371
15.56	6.97998
15.78	8.48727
16	7.09149
16.22	2.43296
16.44	16.2382
16.66	12.1753
16.88	2.66993
17.1	7.51803
17.32	0.493694
17.54	0.587477
17.76	7.4332
17.98	12.5544
18.2	5.37826
18.42	168.77
18.64	22.7282
18.86	8.06512
19.08	21.2994
19.3	11.5507
19.52	22.7091
19.74	14.054
19.96	30.3639
20.18	5.89428
20.4	11.2185
20.62	9.23585
20.84	9.39285
21.06	14.3808
21.28	11.9485
21.5	13.9053
21.72	4.35192
21.94	6.81031
22.16	0.382257
22.38	7.7492
22.6	2.21003
22.82	15.7357
23.04	12.7561
23.26	9.77854
23.48	12.9299
23.7	11.4614
23.92	16.6258
24.14	7.11327
24.36	10.5185
24.58	5.51229
24.8	6.01866
25.02	18.5099
25.24	15.387
25.46	19.393
25.68	18.5235
25.9	6.91042
26.12	3.5717
26.34	12.9806
26.56	2.51491
26.78	15.0826
27	17.2708
27.22	15.9699
27.44	25.1838
27.66	66.3816
27.88	1590.13
28.1	77.7364
28.32	2.13005
28.54	20.6319
28.76	7.77407
28.98	13.9129
29.2	13.1703
29.42	13.6645
29.64	19.9358
29.86	16.7824
30.08	6.78834
30.3	4.17732
30.52	18.3661
30.74	11.8736
30.96	13.5137
31.18	15.0259
31.4	3.64045
31.62	13.6775
31.84	14.1279
32.06	11.6759
32.28	6.61914
32.5	14.8594
32.72	19.8292
32.94	12.1071
33.16	11.5939
33.38	18.1236
33.6	10.6729
33.82	0.545698
34.04	9.73681
34.26	15.3809
34.48	5.93625
34.7	7.06514
34.92	19.4935
35.14	2.7722
35.36	13.2423
35.58	38.6719
35.8	16.2839
36.02	7.73173
36.24	4.57142
36.46	0.180674
36.68	10.0304
36.9	9.34356
37.12	18.9361
37.34	34.9838
37.56	1.09605
37.78	0.538305
38	6.77515
38.22	6.02836
38.44	13.491
38.66	7.78123
38.88	11.316
39.1	8.9244
39.32	16.2838
39.54	10.5287
39.76	4.85431
39.98	9.53049
40.2	2.5881
40.42	11.3313
40.64	0.84482
40.86	6.43034
41.08	2.20811
41.3	5.65659
41.52	15.2186
41.74	5.40407
41.96	2.38633
42.18	3.05635
42.4	4.94352
42.62	18.0192
42.84	5.20955
43.06	4.83749
43.28	24.3088
43.5	14.969
43.72	7.35518
43.94	19.6769
44.16	5.3307
44.38	13.7747
44.6	17.0493
44.82	5.25895
45.04	5.61436
45.26	10.8924
45.48	0.732586
45.7	15.3764
45.92	7.3326
46.14	5.34983
46.36	2.87697
46.58	2.66506
46.8	3.47481
47.02	27.7446
47.24	336.6
47.46	65.6293
47.68	11.8823
47.9	11.1724
48.12	4.30514
48.34	5.65252
48.56	10.1096
48.78	0.444904
49	4.91766
49.22	8.33892
49.44	2.16006
49.66	2.02927
49.88	9.21367
50.1	10.3545
50.32	0.234428
50.54	1.90227
50.76	9.08827
50.98	0.348677
51.2	6.74218
51.42	15.3107
51.64	4.47978
51.86	9.77973
52.08	8.39653
52.3	1.76348
52.52	7.78237
52.74	0.664465
52.96	7.64226
53.18	1.34838
53.4	10.407
53.62	5.08395
53.84	2.48503
54.06	10.2567
54.28	2.38944
54.5	10.718
54.72	21.588
54.94	5.30323
55.16	7.35944
55.38	11.3424
55.6	11.373
55.82	18.2258
56.04	1.1391
56.26	3.09635
56.48	1.95999
56.7	1.35491
56.92	2.63168
57.14	11.7299
57.36	31.2843
57.58	33.2779
57.8	11.9182
58.02	8.03075
58.24	3.4972
58.46	18.1168
58.68	5.78109
58.9	3.29538
59.12	12.7261
59.34	11.0748
59.56	0.035519
59.78	8.09088
60	13.5589
60.22	11.5246
60.44	5.57866
60.66	13.3197
60.88	12.2924
61.1	10.8824
61.32	7.35137
61.54	9.95069
61.76	10.5409
61.98	7.03594
62.2	7.50164
62.42	6.97316
62.64	6.46162
62.86	29.6046
63.08	40.8192
63.3	15.7384
63.52	7.84684
63.74	9.54116
63.96	3.94354
64.18	7.7525
64.4	4.48677
64.62	11.0213
64.84	0.295923
65.06	14.5915
65.28	10.538
65.5	8.63504
65.72	8.80386
65.94	7.80105
66.16	3.70069
66.38	1.52069
66.6	12.3436
66.82	2.13952
67.04	1.97415
67.26	4.97843
67.48	12.9853
67.7	2.26708
67.92	2.38175
68.14	5.61149
68.36	11.8035
68.58	5.71815
68.8	4.81563
69.02	7.91821
69.24	4.79002
69.46	2.96747
69.68	5.95454
69.9	13.8223
70.12	7.72297
70.34	17.5462
70.56	4.14419
70.78	12.8926
71	4.63446
71.22	2.43119
71.44	0.041147
71.66	7.86762
71.88	1.55158
72.1	19.3874
72.32	27.6569
72.54	23.4823
72.76	11.748
72.98	11.8513
73.2	1.89208
73.42	10.151
73.64	0.433547
73.86	0.34331
74.08	1.98542
74.3	8.17444
74.52	6.30868
74.74	7.07215
74.96	4.04884
75.18	0.889688
75.4	11.9289
75.62	14.1125
75.84	4.17012
76.06	5.03081
76.28	4.23572
76.5	5.35069
76.72	2.45926
76.94	11.8746
77.16	5.83995
77.38	2.18201
77.6	0.410371
77.82	4.38561
78.04	12.2677
78.26	2.12025
78.48	9.06042
78.7	3.85581
78.92	16.6895
79.14	7.68763
79.36	3.26864
79.58	3.39309
79.8	4.27544
80.02	0.688087
80.24	11.4132
80.46	1.57324
80.68	4.77785
80.9	0.012373
81.12	11.0924
81.34	6.07025
81.56	5.15098
81.78	4.16807
82	4.55412
82.22	2.56551
82.44	5.45612
82.66	15.6858
82.88	4.78657
83.1	2.88166
83.32	8.93748
83.54	5.03921
83.76	5.16462
83.98	12.0472
84.2	0.125206
84.42	2.70409
84.64	9.62715
84.86	4.72617
85.08	0.643795
85.3	5.73424
85.52	5.54382
85.74	2.56886
85.96	5.7418
86.18	7.64658
86.4	8.71392
86.62	3.6976
86.84	0.304327
87.06	0.358241
87.28	4.51128
87.5	1.50256
87.72	0.585224
87.94	6.55909
88.16	8.70824
88.38	7.78249
88.6	9.24752
88.82	6.43766
89.04	7.75254
89.26	10.147
89.48	11.8073
89.7	1.43945
89.92	4.99365
