Measurement: Powder, Xray Data XY Processed
Mineral: Epistilbite
Rruff sample: R061105
Ideal chemistry: Ca_3_(Si_18_Al_6_)O_48_16H_2_O
Locality: Berufiord, Iceland
Source: Michael Scott
Description: Globular aggregate of thin tabular peach and white fibrous crystals
Diffraction sample description: Powder
Measured chemistry: (Ca_2.38_Na_1.04_K_0.09_)_Σ=3.51_(Si_18.11_Al_5.89_)O_48·_11.38H_2_O ; = lighter gray phase : (Na_2.91_Ca_0.13_K_0.12_)_Σ=3.16_Ca_2.00_Al_7.29_Si_28.85_O_72_·16.19H_2_O = darker gray phase = heulandite-Na
Cell parameters: a: 9.0975(9) b: 17.764(2) c: 10.2349(8) alpha: 90 beta: 124.605(9) gamma: 90 volume: 1361.4(2) crystal system: monoclinic
x	intensity
5	0
5.22	6.84808
5.44	0.41474
5.66	2.84933
5.88	14.726
6.1	4.89813
6.32	19.3219
6.54	155.81
6.76	10.4038
6.98	10.1726
7.2	9.58593
7.42	16.3541
7.64	5.98262
7.86	3.33768
8.08	5.04601
8.3	5.35537
8.52	6.48076
8.74	10.2732
8.96	5.89543
9.18	9.37118
9.4	2.23696
9.62	18.1593
9.84	112.199
10.06	17.1741
10.28	7.47939
10.5	15.5935
10.72	10.2494
10.94	1.39747
11.16	4.71222
11.38	8.13248
11.6	7.03584
11.82	2.12298
12.04	4.58259
12.26	9.95373
12.48	14.3199
12.7	6.71385
12.92	27.9459
13.14	10.8697
13.36	8.94902
13.58	15.4985
13.8	12.0398
14.02	8.15609
14.24	2.14011
14.46	8.23153
14.68	13.3783
14.9	10.5949
15.12	8.14654
15.34	61.5624
15.56	9.90766
15.78	15.0916
16	7.35011
16.22	3.53836
16.44	4.47127
16.66	9.4592
16.88	0.631845
17.1	4.23447
17.32	3.10965
17.54	10.4871
17.76	3.32833
17.98	32.0592
18.2	27.8488
18.42	14.3261
18.64	7.01559
18.86	1.50512
19.08	22.3066
19.3	1.3089
19.52	13.4557
19.74	48.7932
19.96	17.7704
20.18	18.7374
20.4	15.221
20.62	9.34544
20.84	8.05824
21.06	11.0919
21.28	2.05568
21.5	25.8514
21.72	7.17739
21.94	1.4788
22.16	23.9384
22.38	17.7847
22.6	11.6653
22.82	14.0718
23.04	106.487
23.26	34.754
23.48	21.0914
23.7	23.4318
23.92	7.49038
24.14	4.22972
24.36	5.99897
24.58	14.8683
24.8	8.61973
25.02	11.2644
25.24	15.3226
25.46	9.21977
25.68	92.0523
25.9	133.468
26.12	18.523
26.34	101.882
26.56	2.22204
26.78	19.0752
27	1.3249
27.22	29.1915
27.44	19.3787
27.66	62.1011
27.88	203.477
28.1	21.2516
28.32	8.06033
28.54	13.3882
28.76	1.58982
28.98	12.5612
29.2	7.4978
29.42	3.28002
29.64	4.9908
29.86	11.7326
30.08	15.737
30.3	9.98392
30.52	13.3927
30.74	70.1651
30.96	44.5516
31.18	5.72385
31.4	20.5612
31.62	4.72301
31.84	2.18893
32.06	12.6774
32.28	14.1239
32.5	7.54764
32.72	13.1866
32.94	10.5922
33.16	7.23529
33.38	34.0279
33.6	19.085
33.82	9.61049
34.04	19.6356
34.26	2.5059
34.48	6.53749
34.7	11.6229
34.92	3.03287
35.14	13.9266
35.36	2.56307
35.58	12.0367
35.8	2.6183
36.02	2.81546
36.24	0.058908
36.46	22.3337
36.68	13.4662
36.9	26.0201
37.12	25.3811
37.34	10.4558
37.56	6.58994
37.78	11.9103
38	7.38169
38.22	9.63106
38.44	1.91218
38.66	4.93579
38.88	16.1504
39.1	2.34039
39.32	1.9667
39.54	11.8221
39.76	11.8692
39.98	2.6859
40.2	5.41322
40.42	10.3911
40.64	14.2098
40.86	12.981
41.08	3.02942
41.3	9.90327
41.52	12.6331
41.74	12.2002
41.96	5.3595
42.18	2.34621
42.4	0.687614
42.62	6.99415
42.84	10.0956
43.06	1.04423
43.28	1.97571
43.5	10.1849
43.72	10.1189
43.94	5.01189
44.16	14.3221
44.38	11.2199
44.6	1.33699
44.82	10.4784
45.04	13.0769
45.26	17.1042
45.48	12.1884
45.7	8.30047
45.92	3.05008
46.14	20.7571
46.36	0.200822
46.58	8.32773
46.8	11.7725
47.02	11.2223
47.24	7.13316
47.46	6.25983
47.68	7.39799
47.9	4.54838
48.12	0.341626
48.34	6.20064
48.56	10.8454
48.78	4.27419
49	4.65709
49.22	6.65586
49.44	2.88036
49.66	11.3627
49.88	0.334229
50.1	0.920773
50.32	8.33602
50.54	14.7224
50.76	6.99597
50.98	5.29421
51.2	2.7578
51.42	36.7443
51.64	12.0603
51.86	1.28326
52.08	1.84512
52.3	5.20592
52.52	8.28901
52.74	14.2852
52.96	8.13435
53.18	13.0309
53.4	11.8602
53.62	4.5681
53.84	0.613431
54.06	10.0805
54.28	6.31844
54.5	12.2347
54.72	10.2205
54.94	10.0474
55.16	3.08763
55.38	4.91264
55.6	9.09602
55.82	7.33979
56.04	7.7047
56.26	5.55748
56.48	5.66908
56.7	8.37626
56.92	5.57382
57.14	3.69052
57.36	2.31241
57.58	11.1855
57.8	17.2345
58.02	0.540071
58.24	6.30879
58.46	6.19877
58.68	5.08989
58.9	6.05339
59.12	2.19435
59.34	0.937871
59.56	12.1176
59.78	7.20302
60	10.7247
60.22	12.6367
60.44	5.37835
60.66	8.38273
60.88	17.6959
61.1	2.77262
61.32	2.92333
61.54	5.16352
61.76	1.52326
61.98	1.39224
62.2	10.9078
62.42	5.27066
62.64	9.46269
62.86	4.47156
63.08	3.70045
63.3	5.65996
63.52	6.74299
63.74	0.932014
63.96	4.7229
64.18	3.66783
64.4	5.78984
64.62	11.5947
64.84	2.45531
65.06	4.14769
65.28	3.01277
65.5	17.0163
65.72	1.18326
65.94	4.56088
66.16	7.43288
66.38	11.2156
66.6	0.134738
66.82	5.6962
67.04	6.36142
67.26	10.2395
67.48	7.37057
67.7	6.52599
67.92	18.3778
68.14	24.3977
68.36	16.6908
68.58	1.92963
68.8	3.33963
69.02	8.47622
69.24	6.62851
69.46	6.82782
69.68	17.0382
69.9	8.35377
70.12	3.26848
70.34	1.45785
70.56	8.68961
70.78	5.78344
71	3.48028
71.22	9.60527
71.44	7.65495
71.66	9.98778
71.88	8.0814
72.1	2.09768
72.32	5.74698
72.54	2.87439
72.76	0.804081
72.98	6.77571
73.2	5.7084
73.42	6.39818
73.64	0.798346
73.86	1.85091
74.08	0.50049
74.3	7.42438
74.52	4.50342
74.74	8.59767
74.96	9.56744
75.18	3.71792
75.4	7.6719
75.62	6.56196
75.84	5.66495
76.06	2.38611
76.28	4.36952
76.5	10.6532
76.72	6.5543
76.94	3.61856
77.16	2.78315
77.38	0.883207
77.6	6.58083
77.82	8.57436
78.04	7.54321
78.26	0.475768
78.48	11.3551
78.7	12.3113
78.92	3.11059
79.14	1.35769
79.36	10.4882
79.58	6.59994
79.8	4.60806
80.02	4.74632
80.24	2.87627
80.46	9.03203
80.68	8.46822
80.9	8.5951
81.12	6.9238
81.34	6.03214
81.56	8.06254
81.78	6.86958
82	0.92367
82.22	8.97404
82.44	3.00107
82.66	2.26073
82.88	7.3248
83.1	1.03531
83.32	0.027399
83.54	6.84666
83.76	4.85552
83.98	3.83009
84.2	12.7554
84.42	9.61982
84.64	6.80891
84.86	4.81932
85.08	3.82326
85.3	2.76961
85.52	2.9374
85.74	5.05045
85.96	5.05104
86.18	3.98853
86.4	10.9751
86.62	1.95962
86.84	11.8507
87.06	3.99298
87.28	4.00624
87.5	0.773736
87.72	5.87122
87.94	7.84495
88.16	5.82633
88.38	2.93841
88.6	4.95739
88.82	7.15406
89.04	6.24219
89.26	5.34197
89.48	0.605169
89.7	10.6076
89.92	0.025271
