Measurement: Powder, Xray Data XY Processed
Mineral: Euclase
Rruff sample: R050623
Ideal chemistry: BeAlSiO_4_(OH)
Locality: Minas Gerais, Brazil
Source: Gemmological Center
Description: Colorless flattened prismatic crystal
Diffraction sample description: Powder
Measured chemistry: Be_1.00_Al_1.00_Si_1.00_O_4_(OH) ; Be not measured but estimated by stoichiometry
Cell parameters: a: 4.7789(3) b: 14.3310(3) c: 4.6323(1) alpha: 90. beta: 100.301(2) gamma: 90. volume: 312.14(2) crystal system: monoclinic
x	intensity
5	0
5.22	20.6033
5.44	11.4797
5.66	1.5947
5.88	10.8287
6.1	9.22319
6.32	12.8996
6.54	12.9995
6.76	0.495773
6.98	14.8246
7.2	8.23128
7.42	1.65644
7.64	9.12977
7.86	15.6861
8.08	2.10887
8.3	14.645
8.52	20.3798
8.74	5.78759
8.96	6.67548
9.18	6.15287
9.4	1.0361
9.62	1.12299
9.84	9.17342
10.06	13.6851
10.28	18.2909
10.5	7.7185
10.72	3.98923
10.94	0.741282
11.16	51.4969
11.38	4.94242
11.6	2.59785
11.82	8.11418
12.04	17.969
12.26	180.55
12.48	150.358
12.7	25.7991
12.92	6.63992
13.14	1.79534
13.36	7.32536
13.58	4.84463
13.8	1.27851
14.02	2.89353
14.24	6.58856
14.46	11.207
14.68	1.73442
14.9	4.54139
15.12	10.1051
15.34	4.703
15.56	8.96499
15.78	7.10631
16	5.25341
16.22	5.53538
16.44	6.54716
16.66	13.4748
16.88	12.4453
17.1	7.12083
17.32	2.97659
17.54	14.0064
17.76	2.68425
17.98	6.77706
18.2	0.744648
18.42	1.71791
18.64	5.58907
18.86	1.59562
19.08	1.79373
19.3	5.8154
19.52	85.8997
19.74	10.0562
19.96	30.1958
20.18	1.33142
20.4	1.16298
20.62	6.20508
20.84	6.70125
21.06	3.11408
21.28	6.16331
21.5	7.08584
21.72	4.04257
21.94	1.89359
22.16	10.5106
22.38	9.13515
22.6	0.028732
22.82	4.73137
23.04	11.6438
23.26	36.8713
23.48	1.95484
23.7	3.75509
23.92	13.4439
24.14	12.3726
24.36	3.37989
24.58	1.60777
24.8	53.9
25.02	14.0739
25.24	2.23418
25.46	44.5918
25.68	11.3156
25.9	10.948
26.12	8.78668
26.34	4.56963
26.56	5.31865
26.78	1.00467
27	25.4382
27.22	14.2184
27.44	6.77178
27.66	285.908
27.88	19.2237
28.1	5.31217
28.32	5.40827
28.54	0.434119
28.76	3.96933
28.98	9.25901
29.2	5.23102
29.42	1.33396
29.64	7.2988
29.86	10.0579
30.08	13.3324
30.3	23.8516
30.52	6.29077
30.74	0.75666
30.96	7.2861
31.18	8.4378
31.4	31.8871
31.62	9.0921
31.84	79.9587
32.06	3.8895
32.28	116.155
32.5	3.03972
32.72	0.559218
32.94	8.38132
33.16	10.844
33.38	3.31823
33.6	5.86986
33.82	8.57425
34.04	6.55524
34.26	12.5621
34.48	6.47699
34.7	19.3631
34.92	8.43866
35.14	14.7872
35.36	70.3312
35.58	15.1659
35.8	11.9878
36.02	8.67901
36.24	1.22905
36.46	6.99444
36.68	64.8151
36.9	21.7356
37.12	6.54042
37.34	1.04884
37.56	8.25586
37.78	41.3988
38	0.425843
38.22	12.882
38.44	6.88067
38.66	0.139799
38.88	7.88324
39.1	4.83644
39.32	0.805691
39.54	49.825
39.76	0.898258
39.98	39.2762
40.2	22.2858
40.42	21.0864
40.64	3.93681
40.86	0.003827
41.08	3.72883
41.3	18.1307
41.52	5.53214
41.74	11.44
41.96	5.62408
42.18	2.42234
42.4	15.2328
42.62	5.18979
42.84	23.0068
43.06	1.18177
43.28	1.44298
43.5	19.1935
43.72	19.0887
43.94	4.73131
44.16	14.7011
44.38	16.5959
44.6	1.49855
44.82	14.6542
45.04	6.27679
45.26	14.7072
45.48	30.8788
45.7	15.1723
45.92	6.92128
46.14	5.904
46.36	7.10401
46.58	16.5454
46.8	0.336803
47.02	9.69761
47.24	10.4257
47.46	1.18855
47.68	1.01516
47.9	11.3071
48.12	7.35112
48.34	143.702
48.56	15.9741
48.78	12.2137
49	0.601154
49.22	12.955
49.44	4.17857
49.66	3.28404
49.88	5.34664
50.1	2.63495
50.32	2.13775
50.54	34.043
50.76	9.7443
50.98	137.588
51.2	63.2098
51.42	25.1602
51.64	2.79621
51.86	2.13827
52.08	2.29541
52.3	6.51916
52.52	8.7567
52.74	5.12128
52.96	8.58735
53.18	8.78944
53.4	2.03496
53.62	6.31181
53.84	5.05816
54.06	7.99143
54.28	15.6897
54.5	6.65182
54.72	9.44496
54.94	21.3047
55.16	4.38468
55.38	5.27881
55.6	9.07291
55.82	2.89936
56.04	6.80611
56.26	1.97518
56.48	8.19602
56.7	49.5334
56.92	6.88828
57.14	6.25118
57.36	3.72544
57.58	7.15684
57.8	5.17141
58.02	11.346
58.24	6.4493
58.46	3.63237
58.68	9.88001
58.9	4.71866
59.12	9.53049
59.34	6.1427
59.56	3.04728
59.78	10.459
60	11.6722
60.22	10.241
60.44	15.8857
60.66	2.60109
60.88	6.17369
61.1	8.64761
61.32	11.9431
61.54	4.79015
61.76	21.2105
61.98	126.308
62.2	27.6259
62.42	5.21173
62.64	2.59386
62.86	1.04786
63.08	4.32309
63.3	1.515
63.52	8.69254
63.74	0.467436
63.96	8.47463
64.18	6.28761
64.4	5.21603
64.62	6.40368
64.84	20.7005
65.06	9.54124
65.28	5.54805
65.5	12.272
65.72	2.85523
65.94	9.03394
66.16	2.71247
66.38	22.3582
66.6	8.43789
66.82	12.0694
67.04	4.24999
67.26	10.456
67.48	5.18292
67.7	2.88765
67.92	1.14139
68.14	22.7121
68.36	10.629
68.58	30.7547
68.8	57.28
69.02	3.11684
69.24	5.32901
69.46	2.60494
69.68	6.73726
69.9	4.14004
70.12	8.70604
70.34	10.4627
70.56	4.89984
70.78	0.946743
71	2.98938
71.22	7.62261
71.44	13.6919
71.66	7.94674
71.88	7.89966
72.1	18.0308
72.32	22.3688
72.54	7.26265
72.76	1.55657
72.98	1.80303
73.2	3.2449
73.42	2.44214
73.64	10.9475
73.86	4.04205
74.08	8.44623
74.3	5.95398
74.52	9.36075
74.74	10.244
74.96	5.2082
75.18	12.2449
75.4	3.39386
75.62	10.3452
75.84	12.1776
76.06	9.07701
76.28	3.96988
76.5	1.5963
76.72	5.35108
76.94	4.01573
77.16	6.72994
77.38	0.89159
77.6	4.00531
77.82	14.8081
78.04	5.70034
78.26	7.9573
78.48	0.097229
78.7	8.18125
78.92	6.11664
79.14	6.20842
79.36	3.27305
79.58	1.22886
79.8	0.071707
80.02	4.88507
80.24	13.3833
80.46	10.3974
80.68	5.2918
80.9	1.20963
81.12	2.3097
81.34	1.3383
81.56	7.37502
81.78	12.5493
82	6.5265
82.22	4.70932
82.44	4.54863
82.66	4.09433
82.88	7.00834
83.1	7.69815
83.32	5.64946
83.54	11.6973
83.76	15.5828
83.98	18.4774
84.2	5.23468
84.42	0.971388
84.64	2.22055
84.86	5.51385
85.08	11.5801
85.3	2.59965
85.52	3.61164
85.74	2.79828
85.96	1.4363
86.18	0.447823
86.4	0.581833
86.62	9.75453
86.84	2.85513
87.06	1.59566
87.28	15.6666
87.5	7.85816
87.72	9.05218
87.94	2.90165
88.16	4.91104
88.38	6.11602
88.6	3.32144
88.82	7.35958
89.04	1.37801
89.26	5.22181
89.48	4.03252
89.7	6.50692
89.92	8.3776
