Measurement: Powder, Xray Data XY Processed
Mineral: Eudidymite
Rruff sample: R060383
Ideal chemistry: Na_2_Be_2_Si_6_O_15_H_2_O
Locality: Mount Malosa, Zomba District, Malawi
Source: Herb Obodda
Description: Colorless to tan micaceous book
Diffraction sample description: Powder
Measured chemistry: Na_1.00_Be_1.00_Si_3.00_O_7_(OH) ; Be not measured but estimated by stoichiometry.
Cell parameters: a: 12.617(2) b: 7.3775(9) c: 13.986(1) alpha: 90. beta: 103.708(9) gamma: 90. volume: 1264.8(2) crystal system: monoclinic
x	intensity
5	0
5.22	16.245
5.44	21.223
5.66	0.47
5.88	19.968
6.1	13.985
6.32	8.845
6.54	14.671
6.76	6.672
6.98	10.733
7.2	9.813
7.42	5.821
7.64	13.28
7.86	5.265
8.08	1.507
8.3	7.055
8.52	5.759
8.74	5.96
8.96	3.386
9.18	9.762
9.4	4.019
9.62	3.219
9.84	4.656
10.06	8.793
10.28	11.987
10.5	0.878
10.72	6.15
10.94	8.648
11.16	9.94
11.38	4.083
11.6	10.077
11.82	0.049
12.04	2.891
12.26	6.852
12.48	5.257
12.7	1.004
12.92	4.645
13.14	24.223
13.36	1.576
13.58	6.307
13.8	5.111
14.02	98.427
14.24	19.478
14.46	27.829
14.68	7.026
14.9	8.283
15.12	2.467
15.34	7.894
15.56	3.172
15.78	5.6
16	8.012
16.22	21.046
16.44	9.234
16.66	2.294
16.88	9.98
17.1	5.745
17.32	9.628
17.54	1.536
17.76	0.679
17.98	24.899
18.2	9.721
18.42	4.548
18.64	4.346
18.86	0.057
19.08	5.832
19.3	5.702
19.52	2.668
19.74	0.691
19.96	3.766
20.18	8.407
20.4	30.253
20.62	2.07
20.84	1.251
21.06	4.315
21.28	1.826
21.5	0.143
21.72	3.868
21.94	4.032
22.16	5.754
22.38	2.949
22.6	16.736
22.82	39.443
23.04	7.151
23.26	4.709
23.48	13.321
23.7	15.667
23.92	6.637
24.14	57.181
24.36	25.346
24.58	11.595
24.8	2.801
25.02	1.269
25.24	9.538
25.46	18.771
25.68	61.051
25.9	9.998
26.12	63.922
26.34	529.166
26.56	15.455
26.78	22.137
27	3.765
27.22	0.068
27.44	1.671
27.66	7.913
27.88	5.367
28.1	35.886
28.32	307.341
28.54	23.275
28.76	9.977
28.98	79.964
29.2	87.886
29.42	3.522
29.64	15.99
29.86	66.102
30.08	5.565
30.3	2.278
30.52	5.909
30.74	6.231
30.96	9.032
31.18	13.549
31.4	159.983
31.62	24.258
31.84	0.453
32.06	1.178
32.28	1.131
32.5	19.664
32.72	10.076
32.94	2.337
33.16	20.866
33.38	2.87
33.6	6.218
33.82	7.411
34.04	0.428
34.26	5.281
34.48	31.753
34.7	12.804
34.92	12.801
35.14	29.731
35.36	7.128
35.58	3.12
35.8	10.397
36.02	28.398
36.24	2.417
36.46	8.385
36.68	13.438
36.9	9.864
37.12	6.531
37.34	2.613
37.56	41.241
37.78	1.659
38	10.829
38.22	1.128
38.44	2.009
38.66	3.878
38.88	1.236
39.1	1.289
39.32	1.369
39.54	6.287
39.76	19.28
39.98	13.242
40.2	11.918
40.42	10.869
40.64	24.699
40.86	0.507
41.08	4.452
41.3	18.67
41.52	1.541
41.74	1.776
41.96	10.675
42.18	8.269
42.4	4.709
42.62	18.631
42.84	4.487
43.06	3.273
43.28	23.154
43.5	17.362
43.72	11.326
43.94	8.528
44.16	19.522
44.38	10.851
44.6	7.166
44.82	10.85
45.04	19.147
45.26	23.474
45.48	8.782
45.7	9.024
45.92	3.837
46.14	2.073
46.36	17.507
46.58	4.755
46.8	8.928
47.02	2.266
47.24	24.279
47.46	5.24
47.68	9.599
47.9	0.843
48.12	3.015
48.34	10.85
48.56	10.71
48.78	4.067
49	2.727
49.22	2.706
49.44	23.122
49.66	13.817
49.88	18.704
50.1	35.666
50.32	11.641
50.54	13.348
50.76	2.324
50.98	3.452
51.2	8.672
51.42	3.687
51.64	7.396
51.86	14.436
52.08	1.463
52.3	3.065
52.52	20.593
52.74	11.489
52.96	3.623
53.18	4.801
53.4	1.095
53.62	10.273
53.84	12.709
54.06	31.096
54.28	31.547
54.5	8.192
54.72	0.048
54.94	12.243
55.16	4.625
55.38	2.786
55.6	18.427
55.82	6.666
56.04	7.21
56.26	5.888
56.48	6.583
56.7	1.179
56.92	7.481
57.14	6.158
57.36	4.046
57.58	1.661
57.8	14.698
58.02	6.311
58.24	11.377
58.46	7.916
58.68	17.996
58.9	2.138
59.12	0.314
59.34	5.468
59.56	9.781
59.78	5.884
60	15.123
60.22	2.08
60.44	6.024
60.66	2.868
60.88	2.988
61.1	1.311
61.32	10.688
61.54	14
61.76	1.43
61.98	6.753
62.2	2.655
62.42	2.903
62.64	10.01
62.86	7.072
63.08	5.002
63.3	5.043
63.52	5.933
63.74	6.576
63.96	1.318
64.18	11.96
64.4	2.384
64.62	8.437
64.84	2.392
65.06	9.733
65.28	17.57
65.5	7.29
65.72	20.406
65.94	1.415
66.16	4.334
66.38	9.654
66.6	4.601
66.82	4.87
67.04	10.795
67.26	10.44
67.48	2.802
67.7	10.76
67.92	10.649
68.14	12.133
68.36	3.994
68.58	4.204
68.8	6.425
69.02	19.853
69.24	17.748
69.46	4.101
69.68	13.56
69.9	6.298
70.12	1.525
70.34	1.694
70.56	2.396
70.78	11.495
71	6.184
71.22	5.068
71.44	3.805
71.66	6.753
71.88	6.624
72.1	3.611
72.32	8.149
72.54	12.443
72.76	3.486
72.98	5.936
73.2	14.81
73.42	5.743
73.64	2.718
73.86	3.702
74.08	12.842
74.3	7.544
74.52	14.566
74.74	5.875
74.96	5.429
75.18	5.415
75.4	8.464
75.62	3.621
75.84	12.781
76.06	8.042
76.28	10.295
76.5	7.636
76.72	7.226
76.94	0.221
77.16	4.371
77.38	9.725
77.6	3.868
77.82	14.945
78.04	5.114
78.26	5.202
78.48	5.099
78.7	4.774
78.92	8.467
79.14	5.136
79.36	7.17
79.58	2.873
79.8	9.793
80.02	8.693
80.24	4.648
80.46	1.526
80.68	6.482
80.9	6.717
81.12	7.78
81.34	13.994
81.56	1.05
81.78	5.139
82	1.257
82.22	9.283
82.44	2.388
82.66	2.361
82.88	11.286
83.1	8.164
83.32	9.893
83.54	18.728
83.76	8.717
83.98	8.57
84.2	4.47
84.42	2.33
84.64	13.456
84.86	0.352
85.08	3.388
85.3	10.542
85.52	3.678
85.74	11.765
85.96	5.715
86.18	9.966
86.4	4.182
86.62	8.42
86.84	7.331
87.06	6.306
87.28	4.417
87.5	5.505
87.72	5.455
87.94	9.422
88.16	2.489
88.38	8.577
88.6	2.614
88.82	0.574
89.04	4.428
89.26	15.549
89.48	7.838
89.7	8.229
89.92	5.044
