Measurement: Powder, Xray Data XY Processed
Mineral: Eudidymite
Rruff sample: R060063
Ideal chemistry: Na_2_Be_2_Si_6_O_15_H_2_O
Locality: Langesundfjord, Norway
Source: University of Arizona Mineral Museum
Description: Colorless crystal fragment
Diffraction sample description: Powder
Measured chemistry: Na_1.00_Be_1.00_Si_3.00_O_7_(OH)
Cell parameters: a: 12.611(3) b: 7.3814(9) c: 13.988(2) alpha: 90 beta: 103.74(2) gamma: 90 volume: 1264.9(3) crystal system: monoclinic
x	intensity
5	0
5.22	10.845
5.44	24.75
5.66	9.28
5.88	10.105
6.1	8.879
6.32	21.053
6.54	12.422
6.76	16.323
6.98	8.814
7.2	9.439
7.42	1.904
7.64	5.22
7.86	7.742
8.08	4.895
8.3	3.063
8.52	8.563
8.74	10.203
8.96	7.198
9.18	0.045
9.4	1.664
9.62	2.236
9.84	2.469
10.06	12.493
10.28	0.313
10.5	8.446
10.72	10.221
10.94	1.486
11.16	0.574
11.38	3.482
11.6	8.817
11.82	6.179
12.04	5.429
12.26	8.482
12.48	1.552
12.7	9.487
12.92	12.295
13.14	8.369
13.36	9.934
13.58	4.239
13.8	1.6
14.02	175.503
14.24	22.712
14.46	61.311
14.68	10.394
14.9	7.718
15.12	2.194
15.34	10.051
15.56	15.54
15.78	7.207
16	2.598
16.22	28.311
16.44	9.2
16.66	15.313
16.88	0.655
17.1	22.087
17.32	0.609
17.54	11.787
17.76	7.182
17.98	48.723
18.2	6.115
18.42	4.238
18.64	8.457
18.86	10.496
19.08	5.94
19.3	17.205
19.52	4.431
19.74	7.428
19.96	7.567
20.18	5.311
20.4	20.678
20.62	0.497
20.84	8.769
21.06	8.08
21.28	2.925
21.5	6.849
21.72	0.965
21.94	8.171
22.16	6.342
22.38	15.553
22.6	16.317
22.82	26.07
23.04	3.665
23.26	6.344
23.48	9.476
23.7	18.559
23.92	1.788
24.14	78.031
24.36	33.074
24.58	10.723
24.8	6.808
25.02	9.369
25.24	5.775
25.46	13.324
25.68	46.818
25.9	20.277
26.12	29.559
26.34	197.577
26.56	9.57
26.78	8.191
27	1.154
27.22	12.999
27.44	7.604
27.66	10.277
27.88	18.721
28.1	30.283
28.32	217.664
28.54	13.341
28.76	8.671
28.98	78.969
29.2	127.295
29.42	15.654
29.64	18.216
29.86	66.74
30.08	9.579
30.3	0.643
30.52	2.726
30.74	10.198
30.96	1.677
31.18	15.919
31.4	126.56
31.62	17.543
31.84	4.338
32.06	7.741
32.28	19.269
32.5	16.215
32.72	12.607
32.94	5.758
33.16	6.384
33.38	3.026
33.6	1.982
33.82	1.382
34.04	10.512
34.26	17.483
34.48	28.23
34.7	12.263
34.92	14.234
35.14	14.136
35.36	11.662
35.58	8.085
35.8	8.018
36.02	19.161
36.24	5.603
36.46	17.979
36.68	20.144
36.9	8.263
37.12	1.478
37.34	18.225
37.56	39.216
37.78	11.179
38	6.505
38.22	15.554
38.44	0.92
38.66	0.108
38.88	6.808
39.1	17.728
39.32	6.221
39.54	6.998
39.76	22.306
39.98	23.375
40.2	14.192
40.42	11.86
40.64	12.959
40.86	14.134
41.08	15.448
41.3	11.732
41.52	10.662
41.74	14.844
41.96	5.882
42.18	7.931
42.4	20.093
42.62	15.19
42.84	0.587
43.06	14.292
43.28	1.176
43.5	7.929
43.72	0.04
43.94	2.291
44.16	12.462
44.38	8.893
44.6	0.229
44.82	18.938
45.04	21.802
45.26	20.309
45.48	12.972
45.7	8.653
45.92	15.071
46.14	6.427
46.36	17.863
46.58	8.686
46.8	15.038
47.02	10.952
47.24	11.786
47.46	10.648
47.68	16.687
47.9	8.185
48.12	7.899
48.34	13.629
48.56	12.334
48.78	10.014
49	10.316
49.22	0.885
49.44	7.313
49.66	11.402
49.88	22.355
50.1	50.245
50.32	13.26
50.54	6.43
50.76	10.671
50.98	5.967
51.2	0.705
51.42	9.494
51.64	13.669
51.86	27.896
52.08	0.642
52.3	3.745
52.52	16.356
52.74	19.003
52.96	7.239
53.18	8.464
53.4	2.181
53.62	8.141
53.84	19.404
54.06	10.002
54.28	24.188
54.5	10.683
54.72	6.744
54.94	3.772
55.16	7.255
55.38	11.53
55.6	9.707
55.82	15.748
56.04	10.619
56.26	7.003
56.48	3.992
56.7	12.011
56.92	1.665
57.14	2.589
57.36	7.623
57.58	8.163
57.8	3.842
58.02	16.69
58.24	13.54
58.46	15.853
58.68	2.458
58.9	12.098
59.12	0.408
59.34	2.927
59.56	0.65
59.78	10.523
60	12.857
60.22	5.277
60.44	5.55
60.66	6.432
60.88	13.74
61.1	7.007
61.32	2.423
61.54	3.57
61.76	15.591
61.98	11.435
62.2	0.406
62.42	12.773
62.64	6.348
62.86	22.375
63.08	7.677
63.3	11.668
63.52	10.368
63.74	4.261
63.96	9.955
64.18	0.426
64.4	6.329
64.62	9.093
64.84	10.037
65.06	7.447
65.28	20.355
65.5	6.158
65.72	13.181
65.94	1.282
66.16	6.464
66.38	5.689
66.6	5.926
66.82	6.106
67.04	13.249
67.26	15.083
67.48	6.93
67.7	1.907
67.92	6.973
68.14	16.688
68.36	10.497
68.58	8.418
68.8	2.267
69.02	2.345
69.24	13.391
69.46	8.549
69.68	6.553
69.9	4.964
70.12	5.258
70.34	13.267
70.56	8.645
70.78	2.798
71	3.852
71.22	11.163
71.44	2.016
71.66	4.917
71.88	0.293
72.1	8.605
72.32	6.31
72.54	12.113
72.76	5.074
72.98	9.105
73.2	8.984
73.42	1.641
73.64	10.516
73.86	1.573
74.08	2.571
74.3	2.614
74.52	11.961
74.74	12.054
74.96	9.115
75.18	11.091
75.4	0.945
75.62	2.486
75.84	10.08
76.06	7.414
76.28	7.881
76.5	8.047
76.72	8.4
76.94	7.238
77.16	6.224
77.38	4.419
77.6	7.363
77.82	5.227
78.04	11.8
78.26	10.63
78.48	6.449
78.7	16.145
78.92	9.277
79.14	0.108
79.36	8.102
79.58	5.083
79.8	2.94
80.02	5.096
80.24	12.111
80.46	10.204
80.68	8.187
80.9	7.316
81.12	5.347
81.34	5.344
81.56	7.819
81.78	11.995
82	7.338
82.22	2.575
82.44	8.582
82.66	14.428
82.88	1.529
83.1	3.537
83.32	2.664
83.54	0.73
83.76	1.103
83.98	1.593
84.2	2.252
84.42	1.975
84.64	7.694
84.86	3.502
85.08	0.526
85.3	10.741
85.52	1.705
85.74	11.996
85.96	8.076
86.18	8.217
86.4	3.727
86.62	6.91
86.84	10.181
87.06	5.474
87.28	3.751
87.5	1.06
87.72	9.693
87.94	3.023
88.16	2.022
88.38	3.024
88.6	10.837
88.82	4.592
89.04	2.705
89.26	3.579
89.48	7.641
89.7	8.107
89.92	12.173
