Measurement: Powder, Xray Data XY Processed
Mineral: Euxenite-(Y)
Rruff sample: R070324
Ideal chemistry: (Y^3+^,Ca,Ce^3+^,U^4+^,Th^4+^)(Nb^5+^,Ta^5+^,Ti^4+^)_2_O_6_
Locality: Impilahti Parish, Lake Ladoga region, Russia
Source: James Shigley
Description: Vitreous amorphous dark brown massive
Diffraction sample description: Powder
x	intensity
5	0
5.22	19.3264
5.44	15.4217
5.66	0.4953
5.88	13.1828
6.1	23.6017
6.32	18.9175
6.54	5.64778
6.76	26.3302
6.98	20.9331
7.2	9.82913
7.42	20.9745
7.64	18.3436
7.86	2.95234
8.08	19.5417
8.3	15.1697
8.52	7.55276
8.74	2.48408
8.96	7.74692
9.18	9.08892
9.4	12.3913
9.62	20.679
9.84	16.4048
10.06	4.2665
10.28	5.60931
10.5	23.0583
10.72	11.2372
10.94	14.6192
11.16	2.57564
11.38	3.86995
11.6	11.9441
11.82	4.5137
12.04	10.8618
12.26	14.7376
12.48	27.054
12.7	4.84676
12.92	8.7637
13.14	5.82636
13.36	12.8104
13.58	8.9238
13.8	17.3338
14.02	12.4761
14.24	7.21291
14.46	6.11922
14.68	0.732834
14.9	2.10815
15.12	11.3941
15.34	15.5121
15.56	7.07951
15.78	18.1272
16	4.09228
16.22	7.74209
16.44	17.7036
16.66	10.7686
16.88	13.2752
17.1	11.1956
17.32	11.8656
17.54	0.69973
17.76	11.1804
17.98	20.6699
18.2	14.4834
18.42	22.2464
18.64	21.0594
18.86	11.7562
19.08	28.515
19.3	4.6741
19.52	4.37598
19.74	7.92778
19.96	23.5448
20.18	29.1796
20.4	3.74071
20.62	5.50155
20.84	22.199
21.06	7.97175
21.28	19.4365
21.5	8.02669
21.72	17.1213
21.94	18.4513
22.16	17.2888
22.38	7.02473
22.6	19.4905
22.82	11.8552
23.04	3.60471
23.26	11.285
23.48	0.389313
23.7	8.93744
23.92	29.0212
24.14	10.8477
24.36	16.4139
24.58	6.72353
24.8	24.0965
25.02	29.335
25.24	14.8684
25.46	25.4651
25.68	19.6953
25.9	9.50457
26.12	9.35589
26.34	13.9646
26.56	3.57729
26.78	0.858273
27	20.9226
27.22	10.7456
27.44	8.22034
27.66	7.34598
27.88	5.28457
28.1	9.32028
28.32	2.81863
28.54	7.28387
28.76	5.93446
28.98	9.53714
29.2	27.2733
29.42	10.6947
29.64	24.5885
29.86	6.64408
30.08	6.20028
30.3	20.2684
30.52	3.71994
30.74	5.28074
30.96	7.51696
31.18	18.8665
31.4	2.57515
31.62	25.5234
31.84	2.46066
32.06	2.8482
32.28	10.6036
32.5	27.6085
32.72	14.1276
32.94	10.9702
33.16	2.96228
33.38	0.832024
33.6	1.88257
33.82	0.879738
34.04	0.061966
34.26	23.9176
34.48	17.5549
34.7	13.3762
34.92	10.071
35.14	23.2962
35.36	1.09055
35.58	17.7066
35.8	4.31435
36.02	23.364
36.24	20.9092
36.46	19.5621
36.68	8.72547
36.9	3.97429
37.12	13.2953
37.34	15.9751
37.56	12.0488
37.78	1.42121
38	0.435562
38.22	6.79938
38.44	13
38.66	13.592
38.88	9.1647
39.1	22.1424
39.32	3.70975
39.54	10.682
39.76	6.97461
39.98	5.70708
40.2	10.7559
40.42	4.88024
40.64	6.2507
40.86	11.3257
41.08	10.4064
41.3	11.4774
41.52	0.432642
41.74	5.93863
41.96	20.2038
42.18	10.8938
42.4	5.03389
42.62	12.9771
42.84	10.8585
43.06	5.31277
43.28	12.3746
43.5	2.94174
43.72	0.890671
43.94	8.23248
44.16	12.1227
44.38	17.7519
44.6	9.86758
44.82	19.9932
45.04	1.08764
45.26	22.1062
45.48	4.89534
45.7	18.3152
45.92	20.3288
46.14	18.3314
46.36	10.6986
46.58	8.2975
46.8	8.56761
47.02	5.17438
47.24	14.7824
47.46	31.7478
47.68	18.9134
47.9	14.0674
48.12	20.3439
48.34	12.1368
48.56	3.51307
48.78	12.4633
49	25.4494
49.22	10.5459
49.44	7.78257
49.66	20.0288
49.88	6.70689
50.1	19.9548
50.32	19.1611
50.54	21.0601
50.76	8.04795
50.98	8.96773
51.2	11.8763
51.42	9.66797
51.64	12.3698
51.86	9.13047
52.08	16.4317
52.3	1.18943
52.52	15.4574
52.74	10.6186
52.96	16.8117
53.18	0.305511
53.4	17.6499
53.62	1.93771
53.84	20.3444
54.06	11.276
54.28	18.4543
54.5	10.1417
54.72	24.6314
54.94	13.9603
55.16	6.36479
55.38	14.5955
55.6	3.07846
55.82	15.9427
56.04	13.1624
56.26	9.96151
56.48	16.8534
56.7	15.0608
56.92	9.16416
57.14	7.12622
57.36	11.4588
57.58	12.1674
57.8	2.40445
58.02	14.55
58.24	9.13805
58.46	3.48187
58.68	11.7409
58.9	10.2692
59.12	1.24292
59.34	5.20921
59.56	10.4813
59.78	19.9136
60	2.18036
60.22	0.089401
60.44	2.25053
60.66	14.294
60.88	17.0153
61.1	14.9095
61.32	13.9025
61.54	15.0556
61.76	12.1246
61.98	9.1843
62.2	13.8529
62.42	11.0676
62.64	13.1146
62.86	7.65946
63.08	8.88593
63.3	27.9957
63.52	10.5821
63.74	11.1537
63.96	7.48198
64.18	12.913
64.4	5.32207
64.62	7.64631
64.84	12.9085
65.06	8.97433
65.28	6.86549
65.5	10.523
65.72	22.8401
65.94	7.97096
66.16	9.59991
66.38	14.6573
66.6	15.0285
66.82	6.25676
67.04	12.0654
67.26	14.2559
67.48	16.9385
67.7	5.72789
67.92	11.7894
68.14	6.58094
68.36	13.2492
68.58	3.17359
68.8	4.74606
69.02	0.287003
69.24	11.6221
69.46	0.896196
69.68	14.5182
69.9	13.789
70.12	3.0788
70.34	9.42497
70.56	3.29583
70.78	14.0035
71	6.38139
71.22	6.94272
71.44	16.4863
71.66	12.6198
71.88	15.3862
72.1	0.234928
72.32	15.2447
72.54	8.96102
72.76	20.8446
72.98	12.8068
73.2	17.5943
73.42	13.878
73.64	11.9143
73.86	16.576
74.08	5.31058
74.3	11.421
74.52	6.61537
74.74	15.772
74.96	8.41958
75.18	17.2388
75.4	2.64684
75.62	10.3491
75.84	15.9253
76.06	17.7752
76.28	15.9637
76.5	7.1391
76.72	16.2375
76.94	0.744383
77.16	12.8748
77.38	4.56913
77.6	16.7083
77.82	1.79505
78.04	6.77855
78.26	8.83391
78.48	19.0206
78.7	8.16058
78.92	1.18671
79.14	3.09567
79.36	4.08906
79.58	10.9155
79.8	12.4026
80.02	2.93377
80.24	5.89545
80.46	14.8901
80.68	9.78722
80.9	1.24734
81.12	1.09865
81.34	0.077953
81.56	6.74564
81.78	6.15293
82	7.26895
82.22	13.5063
82.44	12.8093
82.66	9.59649
82.88	3.02955
83.1	18.1857
83.32	1.16539
83.54	9.51944
83.76	7.7012
83.98	1.5589
84.2	17.1717
84.42	5.28979
84.64	11.3584
84.86	14.179
85.08	7.59693
85.3	18.2433
85.52	9.13759
85.74	4.09717
85.96	11.1418
86.18	13.4343
86.4	12.6066
86.62	7.57683
86.84	13.6846
87.06	13.8813
87.28	1.80002
87.5	15.1825
87.72	16.4046
87.94	12.7166
88.16	17.0346
88.38	0.009914
88.6	5.49457
88.82	7.07676
89.04	7.51922
89.26	14.7761
89.48	16.7919
89.7	20.4038
89.92	14.4488
