Measurement: Powder, Xray Data XY Processed
Mineral: Euxenite-(Y)
Rruff sample: R080101
Ideal chemistry: (Y^3+^,Ca,Ce^3+^,U^4+^,Th^4+^)(Nb^5+^,Ta^5+^,Ti^4+^)_2_O_6_
Locality: Betafo, Madagascar
Source: Michael Scott
Description: Khaki colored fragment from metamict sample R060856, after heating at T = 1000 C for 24 hours
Diffraction sample description: Powder
Cell parameters: a: 14.569(1) b: 5.5503(3) c: 5.1875(2) alpha: 90 beta: 90 gamma: 90 volume: 419.48(3) crystal system: orthorhombic
x	intensity
5	0
5.22	14.4303
5.44	2.80043
5.66	9.66049
5.88	5.48464
6.1	2.66032
6.32	12.1745
6.54	3.53308
6.76	17.0538
6.98	10.4192
7.2	6.50292
7.42	3.03976
7.64	15.6493
7.86	4.12125
8.08	7.34339
8.3	1.25952
8.52	17.0753
8.74	4.23846
8.96	15.4466
9.18	3.01851
9.4	12.6884
9.62	6.1316
9.84	3.18372
10.06	19.079
10.28	17.0351
10.5	11.0514
10.72	12.0555
10.94	17.98
11.16	16.8332
11.38	4.50452
11.6	4.78484
11.82	2.01637
12.04	7.62821
12.26	15.491
12.48	9.16007
12.7	19.9827
12.92	3.2065
13.14	5.22975
13.36	12.1039
13.58	9.36549
13.8	4.1773
14.02	17.1539
14.24	5.13184
14.46	4.53931
14.68	9.49193
14.9	7.89148
15.12	0.062225
15.34	2.00992
15.56	7.76575
15.78	14.7225
16	17.4521
16.22	0.411531
16.44	1.27677
16.66	15.7942
16.88	18.6435
17.1	39.877
17.32	0.57505
17.54	1.54147
17.76	15.6911
17.98	6.81198
18.2	12.869
18.42	10.2588
18.64	16.2717
18.86	18.2197
19.08	8.00912
19.3	10.9351
19.52	13.7846
19.74	2.62787
19.96	19.2597
20.18	14.8871
20.4	11.664
20.62	0.57155
20.84	8.84947
21.06	2.94562
21.28	8.71935
21.5	5.65056
21.72	4.69439
21.94	8.66778
22.16	9.086
22.38	2.24562
22.6	6.33739
22.82	1.45812
23.04	0.618246
23.26	15.2945
23.48	18.8967
23.7	5.50651
23.92	11.1748
24.14	12.9246
24.36	142.06
24.58	5.57173
24.8	13.9861
25.02	7.90517
25.24	4.647
25.46	6.60571
25.68	9.52928
25.9	14.4549
26.12	10.2712
26.34	8.39694
26.56	66.7026
26.78	10.2633
27	17.8387
27.22	36.8785
27.44	12.0221
27.66	3.19092
27.88	9.69925
28.1	14.2243
28.32	23.0391
28.54	10.5389
28.76	1.48011
28.98	2.48644
29.2	16.7894
29.42	18.4964
29.64	52.1153
29.86	975.924
30.08	70.8164
30.3	52.6443
30.52	7.76475
30.74	18.244
30.96	11.9295
31.18	14.6642
31.4	16.5118
31.62	2.5864
31.84	11.3369
32.06	22.0629
32.28	96.4217
32.5	15.5543
32.72	6.54129
32.94	15.8236
33.16	12.5245
33.38	2.27618
33.6	7.90802
33.82	9.42181
34.04	13.7028
34.26	13.9432
34.48	38.3476
34.7	37.687
34.92	1.16092
35.14	55.2177
35.36	3.8585
35.58	9.77885
35.8	17.9674
36.02	10.3153
36.24	3.11945
36.46	10.9521
36.68	43.3288
36.9	19.3258
37.12	39.0061
37.34	11.0038
37.56	9.93786
37.78	8.98226
38	2.4604
38.22	12.8418
38.44	19.2587
38.66	11.688
38.88	24.717
39.1	18.159
39.32	9.93005
39.54	16.1593
39.76	2.25145
39.98	0.480234
40.2	10.4892
40.42	11.3921
40.64	6.58507
40.86	38.5165
41.08	14.5123
41.3	38.2819
41.52	13.9085
41.74	9.78501
41.96	0.491638
42.18	2.34747
42.4	0.574762
42.62	16.0078
42.84	40.1008
43.06	5.1041
43.28	0.906294
43.5	2.71293
43.72	10.1285
43.94	6.31742
44.16	2.56545
44.38	10.3758
44.6	23.3666
44.82	8.95419
45.04	17.1503
45.26	11.0579
45.48	11.3309
45.7	7.0548
45.92	15.5256
46.14	0.372196
46.36	7.14828
46.58	10.1979
46.8	31.192
47.02	14.2152
47.24	2.16079
47.46	4.87317
47.68	15.2197
47.9	31.4534
48.12	37.5116
48.34	13.7693
48.56	19.3405
48.78	2.26664
49	10.8006
49.22	15.6335
49.44	15.3601
49.66	40.1785
49.88	102.068
50.1	21.5615
50.32	4.84924
50.54	3.58537
50.76	19.6662
50.98	3.11762
51.2	17.2813
51.42	32.2584
51.64	44.9708
51.86	12.7781
52.08	6.15343
52.3	8.37715
52.52	7.90799
52.74	18.7007
52.96	83.7972
53.18	46.8823
53.4	13.5617
53.62	10.8129
53.84	11.343
54.06	18.0066
54.28	15.1476
54.5	23.066
54.72	7.28389
54.94	4.39532
55.16	0.819469
55.38	1.85661
55.6	10.9017
55.82	16.8653
56.04	70.4126
56.26	13.9173
56.48	4.19172
56.7	8.0594
56.92	3.95941
57.14	34.9432
57.36	16.0547
57.58	3.29386
57.8	0.940771
58.02	12.1714
58.24	10.3618
58.46	4.28727
58.68	12.7315
58.9	23.5171
59.12	31.2901
59.34	9.89306
59.56	2.2044
59.78	10.1674
60	5.19134
60.22	17.8082
60.44	3.63463
60.66	5.96646
60.88	3.18836
61.1	7.51335
61.32	10.8381
61.54	8.1738
61.76	26.1552
61.98	20.6028
62.2	38.3227
62.42	43.3882
62.64	12.8434
62.86	4.04473
63.08	4.59029
63.3	5.02481
63.52	6.77997
63.74	20.474
63.96	7.18481
64.18	4.69277
64.4	4.44961
64.62	21.7682
64.84	18.2784
65.06	24.2286
65.28	0.70929
65.5	11.6246
65.72	3.32857
65.94	11.7156
66.16	4.808
66.38	4.98513
66.6	6.08735
66.82	16.1024
67.04	4.38324
67.26	15.3251
67.48	8.93409
67.7	17.7022
67.92	0.434507
68.14	8.18225
68.36	10.2095
68.58	3.0819
68.8	3.75714
69.02	19.4603
69.24	14.2174
69.46	3.9495
69.68	8.14251
69.9	11.7706
70.12	18.0426
70.34	23.6517
70.56	16.5449
70.78	5.57162
71	8.64604
71.22	12.6887
71.44	5.97353
71.66	0.062727
71.88	17.0229
72.1	9.76004
72.32	9.95542
72.54	10.4025
72.76	3.22782
72.98	13.0565
73.2	12.0825
73.42	14.1717
73.64	11.391
73.86	8.62793
74.08	3.00124
74.3	8.29245
74.52	10.5723
74.74	8.12927
74.96	18.8285
75.18	12.9592
75.4	10.0563
75.62	6.31087
75.84	4.6928
76.06	13.7089
76.28	10.3872
76.5	4.86353
76.72	12.908
76.94	11.4813
77.16	2.29989
77.38	3.21648
77.6	4.51118
77.82	1.94969
78.04	14.6365
78.26	11.3578
78.48	8.57601
78.7	4.76829
78.92	7.78019
79.14	4.18898
79.36	0.671658
79.58	5.46479
79.8	6.63645
80.02	6.81253
80.24	8.15797
80.46	12.3935
80.68	1.45042
80.9	13.418
81.12	19.6358
81.34	18.5848
81.56	7.39408
81.78	7.289
82	21.1466
82.22	6.08756
82.44	8.0312
82.66	7.81764
82.88	15.079
83.1	13.3932
83.32	20.7824
83.54	22.189
83.76	2.53832
83.98	5.43639
84.2	2.93237
84.42	12.4709
84.64	4.83146
84.86	14.7145
85.08	8.07817
85.3	0.968521
85.52	8.01817
85.74	5.33627
85.96	4.55453
86.18	0.731508
86.4	17.4881
86.62	2.34397
86.84	15.138
87.06	14.7429
87.28	18.4612
87.5	6.28863
87.72	0.121613
87.94	13.9912
88.16	5.41414
88.38	5.02739
88.6	18.8867
88.82	15.0145
89.04	14.2901
89.26	10.5612
89.48	10.3284
89.7	14.5513
89.92	20.993
