Measurement: Powder, Xray Data XY Processed
Mineral: Fairfieldite
Rruff sample: R050539
Ideal chemistry: Ca_2_Mn^2+^(PO_4_)_2_2H_2_O
Locality: Foote mine, Kings Mountain, Cleveland County, North Carolina, USA
Source: University of Arizona Mineral Museum
Description: Transparent tabular crystals associated with fluorapatite
Diffraction sample description: Powder
Measured chemistry: Ca_2.00_(Mn^2+^_0.82_Fe^2+^_0.15_Mg_0.03_)_Σ=1_(P_1.00_O_4_)_2_·2H_2_O
Cell parameters: a: 5.8016(9) b: 6.5683(7) c: 5.4986(5) alpha: 102.32(1) beta: 108.682(8) gamma: 90.357(10) volume: 193.28(3) crystal system: triclinic
x	intensity
5	0
5.22	9.643
5.44	19.509
5.66	4.005
5.88	10.097
6.1	11.555
6.32	11.306
6.54	13.627
6.76	24.872
6.98	4.137
7.2	4.566
7.42	5.415
7.64	15.097
7.86	3.632
8.08	1.423
8.3	14.327
8.52	6.604
8.74	4.661
8.96	9.587
9.18	15.438
9.4	2.177
9.62	9.927
9.84	5.89
10.06	10.062
10.28	7.163
10.5	0.418
10.72	15.12
10.94	7.087
11.16	10.736
11.38	0.768
11.6	3.157
11.82	10.291
12.04	10.153
12.26	4.495
12.48	10.154
12.7	13.941
12.92	3.446
13.14	7.371
13.36	1.434
13.58	7.685
13.8	56.917
14.02	7.957
14.24	3.863
14.46	16.782
14.68	1.179
14.9	0.706
15.12	2.008
15.34	9.767
15.56	10.696
15.78	14.57
16	4.7
16.22	1.619
16.44	7.007
16.66	2.995
16.88	9.731
17.1	6.358
17.32	9.451
17.54	18.96
17.76	8.146
17.98	14.339
18.2	0.386
18.42	5.25
18.64	0.867
18.86	1.131
19.08	6.56
19.3	6.49
19.52	32.042
19.74	32.572
19.96	5.479
20.18	2.26
20.4	19.519
20.62	18.258
20.84	2.529
21.06	6.645
21.28	4.06
21.5	8.59
21.72	4.975
21.94	6.878
22.16	17.929
22.38	13.482
22.6	0.449
22.82	7.624
23.04	17.364
23.26	1.015
23.48	5.835
23.7	2.295
23.92	7.856
24.14	4.528
24.36	7.368
24.58	1.198
24.8	16.056
25.02	11.431
25.24	4.199
25.46	1.438
25.68	7.231
25.9	0.918
26.12	11.138
26.34	1.804
26.56	1.05
26.78	7.854
27	4.257
27.22	3.321
27.44	1.952
27.66	91.078
27.88	60.45
28.1	28.697
28.32	16.06
28.54	11.971
28.76	0.83
28.98	1.649
29.2	7.468
29.42	75.917
29.64	24.495
29.86	2.226
30.08	14.276
30.3	21.501
30.52	15.048
30.74	1.993
30.96	23.897
31.18	42.324
31.4	7.37
31.62	48.892
31.84	19.43
32.06	9.58
32.28	8.166
32.5	1.602
32.72	6.21
32.94	17.721
33.16	7.575
33.38	59.468
33.6	26.185
33.82	37.958
34.04	55.421
34.26	11.894
34.48	0.697
34.7	0.363
34.92	9.849
35.14	3.833
35.36	7.474
35.58	17.902
35.8	0.363
36.02	8.597
36.24	8.389
36.46	33.031
36.68	10.76
36.9	0.248
37.12	5.457
37.34	0.041
37.56	4.495
37.78	13.896
38	9.044
38.22	0.482
38.44	6.171
38.66	3.573
38.88	0.659
39.1	7.503
39.32	13.888
39.54	27.909
39.76	13.295
39.98	0.092
40.2	18.079
40.42	8.07
40.64	4.857
40.86	11.996
41.08	18.569
41.3	0.876
41.52	3.302
41.74	17.354
41.96	17.167
42.18	17.361
42.4	1.071
42.62	0.663
42.84	16.021
43.06	10.928
43.28	8.608
43.5	1.673
43.72	9.52
43.94	6.087
44.16	12.228
44.38	45.335
44.6	12.641
44.82	19.99
45.04	4.173
45.26	4.11
45.48	9.233
45.7	10.273
45.92	14.193
46.14	10.925
46.36	1.702
46.58	0.247
46.8	10.906
47.02	16.01
47.24	20.987
47.46	12.969
47.68	7.93
47.9	1.503
48.12	6.382
48.34	19.329
48.56	15.344
48.78	14.477
49	6.183
49.22	27.497
49.44	5.292
49.66	0.144
49.88	1.188
50.1	10.514
50.32	4.326
50.54	14.367
50.76	20.9
50.98	4.607
51.2	8.762
51.42	7.727
51.64	5.027
51.86	0.89
52.08	0.862
52.3	0.893
52.52	8.5
52.74	11.692
52.96	35.655
53.18	15.848
53.4	17.946
53.62	2.191
53.84	1.651
54.06	21.895
54.28	18.812
54.5	6.845
54.72	0.162
54.94	3.728
55.16	7.79
55.38	19.352
55.6	2.133
55.82	4.317
56.04	8.292
56.26	1.175
56.48	8.061
56.7	5.506
56.92	4.315
57.14	7.624
57.36	5.827
57.58	10.076
57.8	7.919
58.02	5.6
58.24	15.709
58.46	1.152
58.68	8.461
58.9	11.462
59.12	7.767
59.34	8.983
59.56	18.48
59.78	0.488
60	17.917
60.22	7.798
60.44	6.852
60.66	7.812
60.88	10.34
61.1	0.86
61.32	19.102
61.54	8.848
61.76	10.85
61.98	1.549
62.2	0.201
62.42	22.402
62.64	5.783
62.86	5.482
63.08	11.732
63.3	15.301
63.52	11.773
63.74	5.694
63.96	9.194
64.18	1.817
64.4	8.88
64.62	5.645
64.84	8.035
65.06	15.664
65.28	24.195
65.5	13.08
65.72	2.266
65.94	6.386
66.16	1.754
66.38	7.68
66.6	7.363
66.82	14.83
67.04	18.164
67.26	8.509
67.48	7.612
67.7	0.582
67.92	8.822
68.14	3.939
68.36	6.469
68.58	14.485
68.8	0.409
69.02	4.713
69.24	16.817
69.46	17.528
69.68	7.26
69.9	8.219
70.12	1.379
70.34	4.083
70.56	13.117
70.78	6.025
71	1.016
71.22	5.786
71.44	11.248
71.66	3.55
71.88	0.056
72.1	16.691
72.32	0.351
72.54	5.69
72.76	11.763
72.98	8.711
73.2	4.795
73.42	8.506
73.64	15.874
73.86	14.877
74.08	7.423
74.3	13.156
74.52	0.716
74.74	5.825
74.96	16.762
75.18	15.261
75.4	1.26
75.62	8.455
75.84	3.551
76.06	6.408
76.28	1.553
76.5	1.651
76.72	6.822
76.94	20.352
77.16	17.538
77.38	14.446
77.6	11.288
77.82	11.49
78.04	2.315
78.26	11.333
78.48	6.48
78.7	3.803
78.92	1.244
79.14	7.825
79.36	6.591
79.58	13.911
79.8	9.925
80.02	11.834
80.24	12.297
80.46	0.818
80.68	8.261
80.9	17.06
81.12	11.911
81.34	9.613
81.56	7.518
81.78	1.457
82	7.916
82.22	9.682
82.44	2.564
82.66	15.192
82.88	1.513
83.1	18.648
83.32	3.185
83.54	7.278
83.76	13.193
83.98	6.472
84.2	2.786
84.42	1.045
84.64	7.411
84.86	16.901
85.08	0.079
85.3	5.726
85.52	16.375
85.74	10.19
85.96	8.153
86.18	4.466
86.4	7.129
86.62	5.112
86.84	9.14
87.06	18.306
87.28	0.394
87.5	3.561
87.72	7.12
87.94	4.696
88.16	17.748
88.38	14.595
88.6	5.569
88.82	4.587
89.04	3.769
89.26	4.13
89.48	16.312
89.7	16.36
89.92	7.388
