Measurement: Powder, Xray Data XY Processed
Mineral: Felsobanyaite
Rruff sample: R060565
Ideal chemistry: Al_4_(S^6+^O_4_)(OH)_10_4H_2_O
Locality: near Weymouth, Dorset, England
Source: Michael Scott
Description: White consolidated powder
Diffraction sample description: Powder
Cell parameters: a: 12.998(7) b: 10.046(5) c: 11.107(3) alpha: 90 beta: 103.99(4) gamma: 90 volume: 1407.4(9) crystal system: monoclinic
x	intensity
5	0
5.22	10.7225
5.44	7.25559
5.66	0.312841
5.88	2.56308
6.1	10.9169
6.32	6.17699
6.54	10.4887
6.76	18.79
6.98	9.01121
7.2	10.8545
7.42	7.9849
7.64	13.1558
7.86	5.20968
8.08	3.41522
8.3	5.09442
8.52	14.4213
8.74	1.33232
8.96	1.2509
9.18	34.5746
9.4	174.249
9.62	191.635
9.84	94.0851
10.06	54.2613
10.28	43.1821
10.5	23.6041
10.72	26.1189
10.94	19.7908
11.16	4.9955
11.38	0.184952
11.6	16.0656
11.82	9.0929
12.04	31.7506
12.26	4.14089
12.48	4.39494
12.7	22.6433
12.92	30.3894
13.14	22.4877
13.36	9.42442
13.58	22.2997
13.8	4.60167
14.02	2.58379
14.24	6.68229
14.46	18.6368
14.68	25.552
14.9	43.9005
15.12	30.3437
15.34	21.7517
15.56	23.0134
15.78	10.6549
16	23.5833
16.22	10.0805
16.44	15.8278
16.66	17.5845
16.88	29.0838
17.1	25.3119
17.32	15.004
17.54	4.25336
17.76	25.3816
17.98	18.5664
18.2	14.6119
18.42	13.8572
18.64	11.7094
18.86	58.0826
19.08	76.8992
19.3	41.8023
19.52	35.3731
19.74	7.43346
19.96	8.99724
20.18	24.3412
20.4	9.1789
20.62	0.826725
20.84	20.9045
21.06	23.7135
21.28	8.55497
21.5	30.3346
21.72	0.352314
21.94	7.76878
22.16	17.1306
22.38	23.5375
22.6	23.2496
22.82	22.1153
23.04	7.05605
23.26	9.16468
23.48	9.82162
23.7	3.57897
23.92	26.9381
24.14	62.0862
24.36	17.5894
24.58	37.6278
24.8	10.0598
25.02	12.1042
25.24	1.90024
25.46	23.5801
25.68	3.37434
25.9	25.5489
26.12	10.541
26.34	19.7411
26.56	3.38661
26.78	11.9627
27	7.48255
27.22	7.90867
27.44	20.9443
27.66	14.6268
27.88	16.4184
28.1	10.2072
28.32	14.6626
28.54	20.3712
28.76	26.4898
28.98	19.7909
29.2	16.7585
29.42	2.88463
29.64	14.7489
29.86	23.182
30.08	2.77564
30.3	19.4799
30.52	9.42148
30.74	1.62693
30.96	18.9119
31.18	9.39071
31.4	5.05256
31.62	16.6217
31.84	17.4593
32.06	4.79808
32.28	16.1182
32.5	5.14253
32.72	5.68195
32.94	26.208
33.16	15.7843
33.38	8.21797
33.6	21.0644
33.82	20.1397
34.04	11.7312
34.26	24.7479
34.48	15.8656
34.7	15.796
34.92	7.02094
35.14	5.90518
35.36	21.5829
35.58	10.1405
35.8	9.991
36.02	11.2808
36.24	11.2803
36.46	7.95434
36.68	22.1318
36.9	8.63554
37.12	11.3497
37.34	6.6879
37.56	10.7248
37.78	8.19287
38	12.1295
38.22	0.00906
38.44	1.35884
38.66	26.5835
38.88	33.0328
39.1	8.62496
39.32	16.9402
39.54	16.4201
39.76	6.99936
39.98	16.6127
40.2	15.9537
40.42	0.719528
40.64	5.66155
40.86	6.46065
41.08	17.575
41.3	25.7621
41.52	10.0007
41.74	2.26984
41.96	0.492027
42.18	13.7155
42.4	2.49018
42.62	20.4327
42.84	3.58509
43.06	8.02828
43.28	5.26746
43.5	6.57902
43.72	9.74593
43.94	14.6994
44.16	2.45206
44.38	11.3724
44.6	18.9846
44.82	9.10366
45.04	12.7502
45.26	8.45669
45.48	21.9538
45.7	8.06612
45.92	14.4421
46.14	18.1692
46.36	16.2996
46.58	15.514
46.8	1.54647
47.02	8.68486
47.24	13.763
47.46	9.84444
47.68	8.26172
47.9	7.05117
48.12	30.0543
48.34	17.3723
48.56	14.7483
48.78	2.40747
49	8.06017
49.22	6.77284
49.44	6.3765
49.66	23.6563
49.88	13.3325
50.1	15.4656
50.32	2.83921
50.54	17.119
50.76	9.50043
50.98	2.22225
51.2	7.31434
51.42	5.30139
51.64	3.06149
51.86	1.86261
52.08	4.64857
52.3	1.58992
52.52	2.95297
52.74	8.60252
52.96	11.9709
53.18	5.59178
53.4	0.534611
53.62	8.96954
53.84	8.58625
54.06	11.8341
54.28	9.05368
54.5	2.19468
54.72	9.18437
54.94	11.0592
55.16	6.70476
55.38	9.84851
55.6	5.29625
55.82	7.2369
56.04	1.01707
56.26	8.91426
56.48	6.32839
56.7	11.3155
56.92	11.1603
57.14	7.62135
57.36	6.99005
57.58	12.2255
57.8	7.28978
58.02	8.67999
58.24	3.24394
58.46	12.2045
58.68	11.1858
58.9	8.21514
59.12	6.32069
59.34	9.9803
59.56	15.093
59.78	2.25371
60	0.723754
60.22	5.29989
60.44	1.63438
60.66	1.95979
60.88	3.27406
61.1	10.3576
61.32	7.23404
61.54	15.2461
61.76	15.0494
61.98	9.09436
62.2	0.853889
62.42	2.77442
62.64	12.8297
62.86	5.8028
63.08	8.82592
63.3	12.8566
63.52	6.7815
63.74	9.63567
63.96	6.47478
64.18	12.2897
64.4	1.29975
64.62	2.44483
64.84	9.5405
65.06	15.5787
65.28	8.79126
65.5	15.0345
65.72	13.2457
65.94	7.29167
66.16	6.51961
66.38	6.75065
66.6	11.2127
66.82	8.38565
67.04	3.41949
67.26	13.7347
67.48	9.5823
67.7	5.6978
67.92	1.76111
68.14	2.01615
68.36	12.229
68.58	3.56254
68.8	3.66542
69.02	13.5011
69.24	9.60612
69.46	15.6341
69.68	4.72478
69.9	6.75547
70.12	5.92314
70.34	4.96393
70.56	3.86854
70.78	3.05927
71	9.86741
71.22	5.94732
71.44	2.89765
71.66	7.91122
71.88	2.21737
72.1	4.12551
72.32	0.43336
72.54	0.538086
72.76	4.43018
72.98	0.407248
73.2	4.55623
73.42	11.6494
73.64	8.90433
73.86	4.99029
74.08	0.977959
74.3	7.23015
74.52	5.24144
74.74	13.411
74.96	11.4167
75.18	11.5347
75.4	6.93286
75.62	7.93715
75.84	3.82652
76.06	1.13265
76.28	8.24847
76.5	8.0503
76.72	9.80787
76.94	8.61018
77.16	2.48738
77.38	17.2558
77.6	5.29323
77.82	1.24498
78.04	15.7885
78.26	11.8552
78.48	0.326608
78.7	0.648165
78.92	7.06455
79.14	6.12107
79.36	8.75758
79.58	5.95256
79.8	1.82746
80.02	3.1384
80.24	4.25578
80.46	9.46794
80.68	2.57011
80.9	5.56099
81.12	5.40377
81.34	6.29145
81.56	11.0246
81.78	0.741787
82	1.73053
82.22	5.7421
82.44	3.75989
82.66	0.273808
82.88	3.49975
83.1	8.64584
83.32	5.68328
83.54	13.7561
83.76	4.53474
83.98	7.50707
84.2	5.84449
84.42	7.81365
84.64	2.7583
84.86	9.73635
85.08	5.71831
85.3	11.7514
85.52	7.68783
85.74	1.6037
85.96	0.070845
86.18	5.08436
86.4	4.90412
86.62	9.03089
86.84	10.19
87.06	15.1867
87.28	0.111388
87.5	6.02038
87.72	1.83031
87.94	2.18466
88.16	7.68401
88.38	3.60369
88.6	7.73805
88.82	2.00558
89.04	7.63917
89.26	8.90181
89.48	12.3916
89.7	7.55864
89.92	9.03245
