Measurement: Powder, Xray Data XY Processed
Mineral: Ferberite
Rruff sample: R050090
Ideal chemistry: Fe^2+^W^6+^O_4_
Locality: Yaogangxian mine, Cheng Zhu City, South Hunan, China
Source: Rock Currier
Description: Dark gray tabular crystal
Diffraction sample description: Powder
Measured chemistry: (Fe^2+^_0.56_Mn_0.44_)W_1.00_O_4_
Cell parameters: a: 4.7765(6) b: 5.7298(3) c: 4.9808(7) alpha: 90. beta: 89.45(1) gamma: 90. volume: 136.31(2) crystal system: monoclinic
x	intensity
5	0
5.22	4.393
5.44	9.921
5.66	5.443
5.88	7.403
6.1	6.421
6.32	6.907
6.54	17.702
6.76	18.926
6.98	2.974
7.2	9.819
7.42	4.406
7.64	17.691
7.86	9.736
8.08	12.779
8.3	14.872
8.52	6.405
8.74	10.368
8.96	1.373
9.18	6.439
9.4	13.74
9.62	3.055
9.84	2.813
10.06	19.872
10.28	10.149
10.5	9.075
10.72	10.004
10.94	9.558
11.16	11.259
11.38	15.833
11.6	11.628
11.82	1.344
12.04	7.054
12.26	6.981
12.48	5.579
12.7	10.887
12.92	9.806
13.14	1.576
13.36	12.58
13.58	2.254
13.8	17.615
14.02	7.831
14.24	4.712
14.46	7.693
14.68	0.405
14.9	7.7
15.12	3.54
15.34	22.557
15.56	60.652
15.78	12.421
16	3.546
16.22	15.549
16.44	0.388
16.66	2.615
16.88	10.523
17.1	1.504
17.32	2.101
17.54	5.689
17.76	1.511
17.98	5.466
18.2	4.404
18.42	15.316
18.64	151.133
18.86	5.055
19.08	19.574
19.3	1.94
19.52	1.912
19.74	6.889
19.96	13.182
20.18	1.538
20.4	9.395
20.62	14.607
20.84	12.562
21.06	8.271
21.28	12.408
21.5	12.659
21.72	16.249
21.94	4.058
22.16	6.223
22.38	8.403
22.6	0.688
22.82	11.806
23.04	4.119
23.26	6.535
23.48	8.98
23.7	182.04
23.92	12.645
24.14	43.005
24.36	121.127
24.58	20.282
24.8	8.663
25.02	5.259
25.24	4.151
25.46	9.831
25.68	14.273
25.9	4.809
26.12	16.365
26.34	3.694
26.56	16.273
26.78	4.642
27	18.582
27.22	18.934
27.44	9.467
27.66	6.259
27.88	11.303
28.1	14.813
28.32	12.068
28.54	17.141
28.76	3.955
28.98	7.492
29.2	8.891
29.42	14.36
29.64	9.514
29.86	34.7
30.08	116.254
30.3	295.998
30.52	104.876
30.74	33.787
30.96	8.936
31.18	71.101
31.4	18.271
31.62	8.945
31.84	2.611
32.06	2.416
32.28	7.696
32.5	3.861
32.72	5.273
32.94	10.293
33.16	15.843
33.38	17.21
33.6	0.949
33.82	2.918
34.04	0.037
34.26	15.792
34.48	8.538
34.7	0.178
34.92	14.679
35.14	17.322
35.36	2.742
35.58	4.99
35.8	20.84
36.02	61.739
36.24	135.503
36.46	33.367
36.68	24.908
36.9	13.773
37.12	11.935
37.34	23.262
37.56	25.432
37.78	42.646
38	4.604
38.22	1.899
38.44	3.129
38.66	3.475
38.88	3.705
39.1	6.882
39.32	14.827
39.54	3.471
39.76	1.133
39.98	7.875
40.2	7.476
40.42	8.728
40.64	36.274
40.86	46.571
41.08	64.123
41.3	13.767
41.52	1.903
41.74	3.468
41.96	12.105
42.18	16.224
42.4	4.962
42.62	16.875
42.84	12.48
43.06	6.84
43.28	0.288
43.5	3.902
43.72	13.953
43.94	11.6
44.16	25.977
44.38	4.98
44.6	5.572
44.82	23.884
45.04	41.525
45.26	25.906
45.48	3.249
45.7	26.495
45.92	7.046
46.14	14.269
46.36	10.474
46.58	11.575
46.8	12.943
47.02	5.986
47.24	13.369
47.46	11.532
47.68	23.895
47.9	7.489
48.12	3.733
48.34	21.158
48.56	36.274
48.78	11.933
49	10.056
49.22	1.141
49.44	19.247
49.66	23.389
49.88	12.796
50.1	8.334
50.32	0.588
50.54	0.442
50.76	8.52
50.98	8.723
51.2	15.429
51.42	50.037
51.64	97.696
51.86	11.825
52.08	3.665
52.3	21.477
52.52	14.286
52.74	13.528
52.96	45.634
53.18	71.505
53.4	121.08
53.62	20.397
53.84	4.66
54.06	2.073
54.28	14.654
54.5	15.78
54.72	12.8
54.94	14.042
55.16	12.555
55.38	10.57
55.6	8.589
55.82	10.699
56.04	18.844
56.26	9.22
56.48	7.986
56.7	10.685
56.92	12.682
57.14	4.682
57.36	4.369
57.58	5.821
57.8	9.049
58.02	21.718
58.24	11.448
58.46	7.319
58.68	0.754
58.9	13.689
59.12	3.929
59.34	16.976
59.56	5.409
59.78	8.064
60	2.917
60.22	6.126
60.44	6.978
60.66	3.548
60.88	9.127
61.1	30.055
61.32	30.426
61.54	13.976
61.76	2.836
61.98	1.776
62.2	2.615
62.42	21.514
62.64	8.586
62.86	26.146
63.08	21.583
63.3	32.041
63.52	19.69
63.74	20.902
63.96	2.182
64.18	12.548
64.4	44.119
64.62	54.19
64.84	46.946
65.06	31.94
65.28	8.909
65.5	13.803
65.72	6.912
65.94	6.029
66.16	3.658
66.38	3.42
66.6	5.698
66.82	6.006
67.04	6.123
67.26	19.545
67.48	8.949
67.7	24.007
67.92	33.256
68.14	59.269
68.36	83.272
68.58	19.742
68.8	8.269
69.02	2.068
69.24	0.786
69.46	8.473
69.68	9.143
69.9	13.773
70.12	7.898
70.34	3.272
70.56	14.687
70.78	2.99
71	17.905
71.22	23.94
71.44	18.633
71.66	5.214
71.88	12.835
72.1	8.665
72.32	7.387
72.54	1.316
72.76	10.569
72.98	7.734
73.2	15.976
73.42	8.992
73.64	0.557
73.86	3.317
74.08	4.694
74.3	24.383
74.52	20.534
74.74	3.227
74.96	9.394
75.18	1.516
75.4	9.398
75.62	17.53
75.84	13.118
76.06	3.066
76.28	17.279
76.5	13.851
76.72	17.821
76.94	14.073
77.16	9.53
77.38	9.909
77.6	7.899
77.82	12.401
78.04	18.675
78.26	12.431
78.48	13.706
78.7	1.951
78.92	7.601
79.14	8.267
79.36	1.036
79.58	3.923
79.8	5.183
80.02	7.194
80.24	9.796
80.46	43.162
80.68	33.185
80.9	18.229
81.12	8.71
81.34	1.466
81.56	9.834
81.78	1.164
82	11.472
82.22	3.265
82.44	1.96
82.66	13.255
82.88	11.292
83.1	2.616
83.32	13.548
83.54	13.094
83.76	16.67
83.98	0.905
84.2	6.228
84.42	4.908
84.64	10.768
84.86	7.319
85.08	15.956
85.3	1.148
85.52	23.648
85.74	5.814
85.96	20.405
86.18	13.212
86.4	2.637
86.62	7.24
86.84	18.018
87.06	18.963
87.28	19.694
87.5	12.215
87.72	21.9
87.94	23.877
88.16	16.795
88.38	5.608
88.6	0.577
88.82	10.824
89.04	19.273
89.26	19.772
89.48	17.654
89.7	14.068
89.92	13.64
