Measurement: Powder, Xray Data XY Processed
Mineral: Ferberite
Rruff sample: R050632
Ideal chemistry: Fe^2+^W^6+^O_4_
Locality: Chance mine, Boulder, Colorado, USA
Source: University of Arizona Mineral Museum
Description: Dark brown rectangular prismatic crystals
Diffraction sample description: Powder
Measured chemistry: Fe^2+^_1.00_WO_4_
Cell parameters: a: 4.7362(3) b: 5.7083(2) c: 4.9658(5) alpha: 90. beta: 89.99(1) gamma: 90. volume: 134.25(2) crystal system: monoclinic
x	intensity
5	0
5.22	9.196
5.44	10.515
5.66	6.241
5.88	11.511
6.1	9.878
6.32	7.397
6.54	14.717
6.76	13.343
6.98	7.825
7.2	12.507
7.42	0.059
7.64	5.489
7.86	8.346
8.08	3.872
8.3	10.511
8.52	4.097
8.74	5.738
8.96	13.316
9.18	10.859
9.4	8.114
9.62	6.203
9.84	4.276
10.06	5.286
10.28	11.388
10.5	8.503
10.72	5.39
10.94	6.179
11.16	9.008
11.38	8.712
11.6	4.391
11.82	8.365
12.04	4.248
12.26	1.26
12.48	4.157
12.7	2.853
12.92	2.706
13.14	6.819
13.36	2.784
13.58	8.837
13.8	2.159
14.02	2.311
14.24	8.235
14.46	3.271
14.68	10.158
14.9	3.258
15.12	2.487
15.34	8.444
15.56	63.548
15.78	4.337
16	3.101
16.22	0.138
16.44	9.595
16.66	8.407
16.88	3.354
17.1	6.145
17.32	5.218
17.54	6.759
17.76	0.625
17.98	8.341
18.2	2.251
18.42	4.133
18.64	13.195
18.86	46.294
19.08	17.42
19.3	1.41
19.52	12.8
19.74	8.73
19.96	3.836
20.18	11.998
20.4	6.979
20.62	8.116
20.84	4.057
21.06	4.486
21.28	9.428
21.5	8.821
21.72	4.7
21.94	7.324
22.16	12.382
22.38	6.218
22.6	11.809
22.82	0.595
23.04	14.968
23.26	8.583
23.48	5.677
23.7	16.967
23.92	21.741
24.14	13.746
24.36	35.568
24.58	40.331
24.8	9.365
25.02	3.015
25.24	4.472
25.46	6.783
25.68	0.398
25.9	10.633
26.12	4.959
26.34	9.848
26.56	3.692
26.78	6.463
27	12.403
27.22	5.259
27.44	7.908
27.66	8.12
27.88	2.138
28.1	1.578
28.32	9.411
28.54	9.975
28.76	2.896
28.98	3.49
29.2	6.855
29.42	0.146
29.64	10.464
29.86	4.301
30.08	15.413
30.3	52.576
30.52	249.11
30.74	33.769
30.96	5.814
31.18	11.018
31.4	74.365
31.62	9.823
31.84	0.369
32.06	13.317
32.28	16.956
32.5	1.521
32.72	2.21
32.94	12.641
33.16	15.223
33.38	5.235
33.6	6.064
33.82	0.089
34.04	3.054
34.26	5.91
34.48	4.703
34.7	6.351
34.92	2.333
35.14	4.806
35.36	2.515
35.58	0.205
35.8	6.577
36.02	14.103
36.24	56.1
36.46	33.353
36.68	14.281
36.9	30.873
37.12	8.816
37.34	9.896
37.56	2.516
37.78	8.748
38	33.888
38.22	19.211
38.44	15.391
38.66	12.409
38.88	0.085
39.1	6.725
39.32	0.158
39.54	3.633
39.76	5.462
39.98	10.775
40.2	8.442
40.42	3.227
40.64	5.879
40.86	10.692
41.08	47.386
41.3	43.551
41.52	5.629
41.74	3.83
41.96	5.916
42.18	8.123
42.4	2.273
42.62	7.576
42.84	8.815
43.06	2.761
43.28	7.723
43.5	7.001
43.72	0.988
43.94	2.098
44.16	27.61
44.38	9.451
44.6	17.373
44.82	8.263
45.04	7.963
45.26	19.223
45.48	24.436
45.7	15.667
45.92	9.623
46.14	12.244
46.36	9.554
46.58	13.473
46.8	2.331
47.02	6.254
47.24	12.082
47.46	0.609
47.68	6.039
47.9	18.069
48.12	7.028
48.34	11.032
48.56	27.198
48.78	20.712
49	6.716
49.22	4.718
49.44	0.458
49.66	6.527
49.88	11.761
50.1	14.242
50.32	1.984
50.54	2.29
50.76	2.49
50.98	2.2
51.2	8.316
51.42	20.836
51.64	30.699
51.86	58.824
52.08	13.152
52.3	6.054
52.52	11.224
52.74	7.166
52.96	8.125
53.18	13.186
53.4	45.946
53.62	88.832
53.84	32.305
54.06	7.316
54.28	4.193
54.5	5.771
54.72	2.449
54.94	11.162
55.16	16.686
55.38	16.362
55.6	11.925
55.82	2.726
56.04	11.554
56.26	14.582
56.48	11.064
56.7	19.056
56.92	0.967
57.14	4.782
57.36	6.256
57.58	3.039
57.8	16.137
58.02	13.852
58.24	1.828
58.46	16.793
58.68	16.875
58.9	0.065
59.12	14.137
59.34	11.046
59.56	12.184
59.78	2.98
60	0.263
60.22	11.193
60.44	13.821
60.66	11.305
60.88	7.675
61.1	15.659
61.32	21.514
61.54	42.905
61.76	16.987
61.98	15.619
62.2	3.248
62.42	14.791
62.64	5.733
62.86	1.125
63.08	0.508
63.3	9.488
63.52	9.844
63.74	11.654
63.96	28.258
64.18	20.582
64.4	3.56
64.62	13.977
64.84	32.762
65.06	5.09
65.28	24.153
65.5	0.962
65.72	12.882
65.94	5.871
66.16	5.82
66.38	3.948
66.6	3.08
66.82	1.068
67.04	11.53
67.26	10.256
67.48	4.966
67.7	5.594
67.92	5.408
68.14	16.099
68.36	52.982
68.58	33.193
68.8	20.426
69.02	16.959
69.24	4.747
69.46	1.53
69.68	14.246
69.9	2.933
70.12	3.072
70.34	2.946
70.56	3.833
70.78	4.141
71	14.97
71.22	8.183
71.44	11.524
71.66	26.751
71.88	2.884
72.1	1.02
72.32	7.391
72.54	6.631
72.76	13.713
72.98	15.082
73.2	14.299
73.42	9.172
73.64	4.33
73.86	17.278
74.08	9.188
74.3	3.427
74.52	17.508
74.74	16.02
74.96	9.851
75.18	9.406
75.4	3.719
75.62	9.605
75.84	8.652
76.06	9.633
76.28	7.598
76.5	5.88
76.72	10.619
76.94	4.067
77.16	0.512
77.38	3.991
77.6	11.255
77.82	13.33
78.04	8.091
78.26	4.938
78.48	0.275
78.7	6.587
78.92	9.47
79.14	7.077
79.36	0.464
79.58	3.136
79.8	0.189
80.02	5.158
80.24	7.336
80.46	0.17
80.68	15.17
80.9	16.633
81.12	32.829
81.34	12.626
81.56	12.842
81.78	10.969
82	20.434
82.22	5.828
82.44	8.352
82.66	11.875
82.88	17.208
83.1	18.444
83.32	14.031
83.54	2.994
83.76	9.594
83.98	9.152
84.2	9.294
84.42	4.814
84.64	12.927
84.86	21.442
85.08	1.846
85.3	1.391
85.52	4.906
85.74	2.043
85.96	6.443
86.18	9.897
86.4	11.484
86.62	16.994
86.84	4.886
87.06	8.297
87.28	13.245
87.5	6.768
87.72	12.032
87.94	14.309
88.16	16.336
88.38	7.951
88.6	2.071
88.82	6.195
89.04	7.229
89.26	17.49
89.48	7.137
89.7	9.289
89.92	20.738
