Measurement: Powder, Xray Data XY Processed
Mineral: Ferrowyllieite
Rruff sample: R060178
Ideal chemistry: NaNaFe^2+^(Fe^2+^Al)(PO_4_)_3_
Locality: Victory mine, Custer County, South Dakota, USA
Source: Marcus Origlieri
Description: Dark gray massive associated with muscovite
Diffraction sample description: Powder
Measured chemistry: (Na_1.30_[box]_0.35_Mn^2+^_0.27_Ca_0.08_)_2_(Fe^2+^_1.78_Mg_0.22_)_Σ=2_(Al_0.75_Fe^3+^_0.25_)_Σ=1_(P_1.00_O_4_)_3_
Cell parameters: a: 11.923(3) b: 12.374(3) c: 6.3685(5) alpha: 90 beta: 114.63(2) gamma: 90 volume: 854.1(0) crystal system: monoclinic
x	intensity
5	0
5.22	6.322
5.44	19.409
5.66	0.275
5.88	6.379
6.1	7.115
6.32	20.014
6.54	17.212
6.76	10.095
6.98	7.749
7.2	14.586
7.42	24.605
7.64	0.905
7.86	10.56
8.08	9.123
8.3	8.425
8.52	14.102
8.74	7.76
8.96	14.089
9.18	9.977
9.4	15.969
9.62	0.099
9.84	0.727
10.06	0.957
10.28	5.578
10.5	10.556
10.72	19.665
10.94	37.269
11.16	18.689
11.38	7.901
11.6	9.784
11.82	3.761
12.04	4.654
12.26	8.629
12.48	15.835
12.7	2.199
12.92	1.598
13.14	1.374
13.36	16.284
13.58	0.186
13.8	21.04
14.02	18.962
14.24	12.951
14.46	11.412
14.68	10.965
14.9	5.894
15.12	8.069
15.34	0.692
15.56	14.907
15.78	10.725
16	6.023
16.22	7.36
16.44	15.519
16.66	4.172
16.88	2.237
17.1	10.688
17.32	5.451
17.54	4.318
17.76	4.488
17.98	16.4
18.2	10.586
18.42	5.652
18.64	1.043
18.86	7.031
19.08	0.847
19.3	0.24
19.52	9.074
19.74	8.783
19.96	0.738
20.18	21.072
20.4	13.017
20.62	6.834
20.84	13.031
21.06	0.711
21.28	14.88
21.5	11.045
21.72	21.54
21.94	10.721
22.16	1.215
22.38	13.412
22.6	6.051
22.82	8.425
23.04	14.465
23.26	2.58
23.48	16.391
23.7	5.613
23.92	9.997
24.14	7.056
24.36	9.137
24.58	26.627
24.8	19.68
25.02	13.508
25.24	0.905
25.46	1.395
25.68	24.63
25.9	25.794
26.12	11.121
26.34	0.123
26.56	10.856
26.78	0.075
27	7.708
27.22	14.139
27.44	27.213
27.66	8.948
27.88	1.877
28.1	4.507
28.32	19.954
28.54	0.377
28.76	4.275
28.98	0.103
29.2	3.662
29.42	31.161
29.64	26.316
29.86	0.581
30.08	12.897
30.3	9.226
30.52	13.542
30.74	16.025
30.96	2.85
31.18	11.175
31.4	73.295
31.62	12.702
31.84	38.689
32.06	0.945
32.28	4.287
32.5	17.745
32.72	5.139
32.94	18.029
33.16	60.68
33.38	143.992
33.6	26.519
33.82	1.084
34.04	17.242
34.26	10.848
34.48	1.417
34.7	21.341
34.92	19.248
35.14	0.177
35.36	5.372
35.58	12.026
35.8	10.603
36.02	42.236
36.24	33.663
36.46	15.621
36.68	1.853
36.9	0.157
37.12	3.714
37.34	13.37
37.56	0.9
37.78	22.879
38	15.652
38.22	11.56
38.44	16.575
38.66	18.807
38.88	8.616
39.1	9.762
39.32	4.176
39.54	4.568
39.76	0.775
39.98	0.209
40.2	20.15
40.42	10.136
40.64	23.513
40.86	28.144
41.08	2.984
41.3	3.885
41.52	16.865
41.74	23.208
41.96	6.83
42.18	6.137
42.4	13.644
42.62	9.051
42.84	10.355
43.06	3.615
43.28	1.056
43.5	3.863
43.72	25.561
43.94	12.353
44.16	13.285
44.38	21.192
44.6	6.653
44.82	20.485
45.04	10.725
45.26	0.938
45.48	0.301
45.7	3.793
45.92	3.589
46.14	18.435
46.36	6.739
46.58	6.847
46.8	6.379
47.02	8.052
47.24	3.851
47.46	8.962
47.68	18.628
47.9	11.158
48.12	4.079
48.34	1.22
48.56	18.549
48.78	7.026
49	11.204
49.22	9.864
49.44	16.305
49.66	5.005
49.88	10.78
50.1	18.888
50.32	6.811
50.54	29.629
50.76	13.271
50.98	22.098
51.2	21.967
51.42	24.64
51.64	10.93
51.86	22.715
52.08	10.34
52.3	4.039
52.52	16.977
52.74	3.736
52.96	17.676
53.18	11.129
53.4	0.298
53.62	4.304
53.84	12.556
54.06	2.688
54.28	9.344
54.5	0.92
54.72	9.636
54.94	22.436
55.16	11.339
55.38	1.951
55.6	39.794
55.82	13.77
56.04	17.27
56.26	15.685
56.48	24.624
56.7	7.464
56.92	0.521
57.14	11.062
57.36	23.068
57.58	12.231
57.8	5.074
58.02	11.092
58.24	11.169
58.46	23.902
58.68	17.821
58.9	9.585
59.12	6.612
59.34	24.572
59.56	5.407
59.78	24.851
60	0.151
60.22	7.963
60.44	15.446
60.66	19.815
60.88	8.73
61.1	1.993
61.32	10.003
61.54	4.637
61.76	17.569
61.98	12.683
62.2	16.039
62.42	13.861
62.64	4.788
62.86	10.326
63.08	3.135
63.3	20.464
63.52	8.217
63.74	9.281
63.96	22.055
64.18	5.08
64.4	13.433
64.62	10.823
64.84	14.871
65.06	1.035
65.28	7.888
65.5	4.949
65.72	13.668
65.94	27.066
66.16	3.071
66.38	0.758
66.6	10.532
66.82	0.98
67.04	0.424
67.26	15.847
67.48	13.631
67.7	17.86
67.92	0.623
68.14	7.126
68.36	1.124
68.58	8.809
68.8	28.651
69.02	11.666
69.24	6.864
69.46	19.001
69.68	21.44
69.9	26.416
70.12	8.92
70.34	2.566
70.56	2.395
70.78	23.826
71	15.141
71.22	10.605
71.44	0.453
71.66	10.513
71.88	10.329
72.1	5.185
72.32	10.53
72.54	17.993
72.76	0.428
72.98	13.12
73.2	9.198
73.42	15.946
73.64	6.829
73.86	8.085
74.08	14.18
74.3	17.431
74.52	13.783
74.74	1.165
74.96	5.69
75.18	8.88
75.4	44.133
75.62	17.579
75.84	2.468
76.06	1.339
76.28	9.726
76.5	2.387
76.72	13.363
76.94	10.517
77.16	25.029
77.38	10.798
77.6	9.388
77.82	20.103
78.04	3.44
78.26	17.579
78.48	19.271
78.7	5.39
78.92	10.287
79.14	14.206
79.36	5.873
79.58	19.139
79.8	0.593
80.02	17.956
80.24	13.074
80.46	0.014
80.68	15.911
80.9	5.821
81.12	16.793
81.34	4.787
81.56	8.086
81.78	0.059
82	8.932
82.22	15.054
82.44	6.077
82.66	2.435
82.88	3.082
83.1	18.055
83.32	5.678
83.54	28.438
83.76	9.433
83.98	23.903
84.2	1.852
84.42	22.296
84.64	13.064
84.86	5.263
85.08	0.679
85.3	16.095
85.52	28.585
85.74	7.069
85.96	3.446
86.18	1.974
86.4	14.728
86.62	5.543
86.84	11.895
87.06	14.243
87.28	23.119
87.5	11.698
87.72	1.689
87.94	4.674
88.16	9.687
88.38	9.354
88.6	6.902
88.82	19.174
89.04	0.858
89.26	10.291
89.48	9.322
89.7	6.317
89.92	19.094
