Measurement: Powder, Xray Data XY Processed
Mineral: Ferro-katophorite
Rruff sample: R050633
Ideal chemistry: NaNaCa[Fe^2+^_4_Al](Si_7_Al)O_22_(OH)_2_
Locality: Taguchi mine, Shidara, Kitashidara-Gun, Aichi Prefecture, Japan
Source: Marcus Origlieri
Description: Dark green fragment associated with yoshimuraite, R050266.
Diffraction sample description: Single crystal, powder profile is calculated
Cell parameters: a: 9.852(2) b: 18.038(3) c: 5.2905(7) alpha: 90 beta: 103.635(8) gamma: 90 volume: 913.7(6) crystal system: monoclinic
x	intensity
5	0
5.22	0
5.44	0
5.66	0
5.88	0
6.1	0
6.32	0
6.54	0
6.76	0
6.98	0
7.2	0
7.42	0
7.64	0
7.86	0
8.08	0
8.3	0
8.52	0
8.74	0
8.96	0
9.18	0
9.4	0
9.62	0
9.84	2.745
10.06	0
10.28	0
10.5	2.437
10.72	0
10.94	0
11.16	0
11.38	0
11.6	0
11.82	0
12.04	0
12.26	0
12.48	0
12.7	0
12.92	0
13.14	0
13.36	0
13.58	0
13.8	0
14.02	0
14.24	0
14.46	0
14.68	0
14.9	0
15.12	0
15.34	0
15.56	0
15.78	0
16	0
16.22	0
16.44	0
16.66	0
16.88	0
17.1	0
17.32	2.518
17.54	0.022
17.76	0
17.98	0
18.2	0.011
18.42	0.028
18.64	0.179
18.86	0
19.08	0
19.3	0
19.52	0
19.74	1.284
19.96	0.468
20.18	0
20.4	0
20.62	0
20.84	0
21.06	3.454
21.28	0
21.5	0
21.72	0
21.94	2.099
22.16	6.023
22.38	0
22.6	0
22.82	0
23.04	0.744
23.26	0
23.48	0
23.7	0
23.92	0
24.14	0
24.36	4.563
24.58	0
24.8	0
25.02	0
25.24	0
25.46	0
25.68	0
25.9	0
26.12	72.663
26.34	6.579
26.56	0.001
26.78	0
27	0.001
27.22	36.014
27.44	0
27.66	0
27.88	0
28.1	0
28.32	8.492
28.54	0.203
28.76	0
28.98	0
29.2	0
29.42	0
29.64	15.418
29.86	2.162
30.08	33.055
30.3	0.01
30.52	6.799
30.74	0
30.96	0
31.18	0
31.4	0
31.62	0.272
31.84	5.807
32.06	0
32.28	0
32.5	0
32.72	0
32.94	61.679
33.16	0
33.38	0
33.6	0
33.82	0
34.04	0
34.26	0.056
34.48	18.981
34.7	3.71
34.92	0.938
35.14	0.032
35.36	0.16
35.58	38.58
35.8	0
36.02	1.394
36.24	0.111
36.46	0.041
36.68	0
36.9	0.578
37.12	0.503
37.34	0.185
37.56	7.252
37.78	0.125
38	0
38.22	0
38.44	0
38.66	8.192
38.88	18.227
39.1	0.033
39.32	6.287
39.54	0.772
39.76	6.979
39.98	2.061
40.2	0
40.42	1.007
40.64	0
40.86	4.253
41.08	0.9
41.3	0.905
41.52	17.492
41.74	0
41.96	0
42.18	0
42.4	5.82
42.62	0.313
42.84	1.283
43.06	0
43.28	0
43.5	0
43.72	11.171
43.94	0.056
44.16	0
44.38	3.36
44.6	5.459
44.82	0.001
45.04	0.001
45.26	13.05
45.48	0.038
45.7	0
45.92	0
46.14	1.156
46.36	1.142
46.58	0.356
46.8	0.003
47.02	0.559
47.24	1.166
47.46	0
47.68	2.913
47.9	1.187
48.12	0
48.34	1.58
48.56	4.979
48.78	0.748
49	2.438
49.22	0.265
49.44	0.359
49.66	0.038
49.88	3.737
50.1	0.647
50.32	0
50.54	6.815
50.76	0.925
50.98	0.129
51.2	0.045
51.42	0.096
51.64	0
51.86	0
52.08	0.077
52.3	0.671
52.52	0.004
52.74	1.041
52.96	0.162
53.18	0.002
53.4	0.274
53.62	0.033
53.84	0.299
54.06	1.232
54.28	3.464
54.5	5.106
54.72	3.765
54.94	0.687
55.16	26.536
55.38	2.568
55.6	0
55.82	0.17
56.04	1.12
56.26	0.053
56.48	0.309
56.7	0.013
56.92	8.234
57.14	1.137
57.36	0.001
57.58	0.025
57.8	0.853
58.02	0.002
58.24	11.385
58.46	8.383
58.68	3.315
58.9	0.739
59.12	0.78
59.34	0.438
59.56	0.314
59.78	0
60	0.051
60.22	0.274
60.44	0.001
60.66	6.149
60.88	1.273
61.1	3.906
61.32	3.814
61.54	0.522
61.76	1.392
61.98	1.362
62.2	0.697
62.42	0.684
62.64	0.205
62.86	0.274
63.08	0.007
63.3	3.695
63.52	0.856
63.74	3.626
63.96	3.601
64.18	1.372
64.4	1.855
64.62	3.678
64.84	13.763
65.06	0.857
65.28	0.079
65.5	0.065
65.72	0.199
65.94	0.55
66.16	0.182
66.38	0.147
66.6	0.23
66.82	1.75
67.04	0.442
67.26	0.005
67.48	0
67.7	10.593
67.92	4.122
68.14	0
68.36	0.017
68.58	0.029
68.8	1.703
69.02	0.838
69.24	0.11
69.46	3.26
69.68	1.565
69.9	8.374
70.12	4.282
70.34	0.641
70.56	0.945
70.78	0.503
71	0.03
71.22	1.592
71.44	0.906
71.66	1.731
71.88	4.726
72.1	2.531
72.32	0.023
72.54	0.512
72.76	0.566
72.98	0.406
73.2	12.141
73.42	6.82
73.64	4.796
73.86	2.309
74.08	0.019
74.3	0.018
74.52	0.682
74.74	0.448
74.96	0.075
75.18	2.644
75.4	1.431
75.62	0.095
75.84	0.014
76.06	0.058
76.28	0.393
76.5	0.284
76.72	0.094
76.94	0.034
77.16	0.548
77.38	0.674
77.6	0.214
77.82	0.762
78.04	0.493
78.26	0.635
78.48	0.251
78.7	0.027
78.92	0.174
79.14	0.56
79.36	0.186
79.58	0.029
79.8	0.076
80.02	0.084
80.24	5.5
80.46	2.65
80.68	0.405
80.9	0.207
81.12	0.098
81.34	0.381
81.56	0.245
81.78	0.107
82	3.763
82.22	1.335
82.44	0.067
82.66	0.1
82.88	0.123
83.1	0.243
83.32	0.669
83.54	0.351
83.76	0.341
83.98	0.318
84.2	0.307
84.42	0.076
84.64	0.077
84.86	0.057
85.08	0.173
85.3	0.754
85.52	0.263
85.74	0.093
85.96	0.893
86.18	0.179
86.4	0.04
86.62	0.053
86.84	0.084
87.06	0.026
87.28	0.091
87.5	0.236
87.72	0.24
87.94	0.057
88.16	0.081
88.38	0.071
88.6	1.211
88.82	1.228
89.04	0.611
89.26	0.062
89.48	0.467
89.7	0.864
89.92	0.059
