Measurement: Powder, Xray Data XY Processed
Mineral: Ferro-actinolite
Rruff sample: R060189
Ideal chemistry: [box]Ca_2_Mg_2.5-0_Fe^2+^_2.5-5_Si_8_O_22_(OH)_2_
Locality: Merry Widow mine, Vancouver Island, British Columbia, Canada
Source: Lloyd Twaites
Description: Parallel aggregate of green fibers
Diffraction sample description: Powder
Measured chemistry: [box](Ca_1.94_Na_0.06_)_Σ=2_(Fe^2+^_2.55_Mg_2.15_Fe^3+^_0.20_Al_0.05_Mn_0.05_)_Σ=5_(Si_0.98_Al_0.02_)_8_O_22_(OH)_2_
Cell parameters: a: 9.9046(7) b: 18.178(1) c: 5.2980(6) alpha: 90 beta: 104.721(7) gamma: 90 volume: 922.6(0) crystal system: monoclinic
x	intensity
5	0
5.22	17.589
5.44	13.771
5.66	7.922
5.88	6.812
6.1	3.833
6.32	10.187
6.54	24.088
6.76	4.3
6.98	5.685
7.2	20.012
7.42	7.35
7.64	1.634
7.86	11.962
8.08	4.2
8.3	13.137
8.52	0.115
8.74	8.028
8.96	11.655
9.18	3.399
9.4	16.163
9.62	6.062
9.84	7.082
10.06	8.118
10.28	27.206
10.5	230.592
10.72	10.118
10.94	5.397
11.16	11.069
11.38	9.897
11.6	9.979
11.82	8.107
12.04	14.396
12.26	11.301
12.48	20.206
12.7	19.071
12.92	7.787
13.14	7.486
13.36	3.248
13.58	4.866
13.8	11.299
14.02	4.574
14.24	19.209
14.46	17.603
14.68	11.172
14.9	3.026
15.12	14.446
15.34	10.419
15.56	13.745
15.78	8.737
16	15.426
16.22	26.33
16.44	16.431
16.66	6.821
16.88	7.197
17.1	0.594
17.32	3.029
17.54	1.434
17.76	17.078
17.98	10.971
18.2	9.264
18.42	16.997
18.64	10.575
18.86	13.277
19.08	29.266
19.3	8.606
19.52	10.978
19.74	13.978
19.96	2.959
20.18	15.68
20.4	4.404
20.62	14.894
20.84	12.916
21.06	24.73
21.28	6.702
21.5	5.693
21.72	12.46
21.94	5.07
22.16	17.541
22.38	17.35
22.6	13.744
22.82	21.557
23.04	23.574
23.26	25.596
23.48	11.182
23.7	3.234
23.92	12.459
24.14	11.455
24.36	22.352
24.58	13.648
24.8	7.423
25.02	4.821
25.24	6.644
25.46	6.211
25.68	13.229
25.9	14.935
26.12	16.263
26.34	17.614
26.56	20.284
26.78	19.336
27	13.726
27.22	21.574
27.44	11.256
27.66	8.279
27.88	4.362
28.1	21.404
28.32	41.362
28.54	41.427
28.76	14.218
28.98	6.911
29.2	0.624
29.42	22.736
29.64	14.759
29.86	8.106
30.08	13.173
30.3	26.318
30.52	15.72
30.74	17.239
30.96	14.015
31.18	14.38
31.4	5.611
31.62	13.485
31.84	4.905
32.06	4.788
32.28	26.217
32.5	30.217
32.72	18.948
32.94	78.598
33.16	8.612
33.38	20.06
33.6	0.661
33.82	21.613
34.04	7.995
34.26	3.005
34.48	19.144
34.7	19.538
34.92	19.619
35.14	17.534
35.36	41.862
35.58	10.047
35.8	8.431
36.02	4.605
36.24	12.997
36.46	0.697
36.68	14.606
36.9	15.985
37.12	5.124
37.34	22.644
37.56	11.376
37.78	7.094
38	5.096
38.22	12.602
38.44	23.497
38.66	31.44
38.88	12.731
39.1	6.968
39.32	18.615
39.54	6.793
39.76	0.251
39.98	22.909
40.2	15.012
40.42	19.063
40.64	8.387
40.86	6.504
41.08	7.233
41.3	19.445
41.52	30.38
41.74	12.353
41.96	27.547
42.18	20.931
42.4	8.331
42.62	13.965
42.84	12.602
43.06	7.203
43.28	26.818
43.5	13.358
43.72	11.148
43.94	13.729
44.16	32.403
44.38	15.399
44.6	18.575
44.82	24.4
45.04	11.486
45.26	9.364
45.48	7.841
45.7	0.3
45.92	0.959
46.14	15.559
46.36	7.459
46.58	0.417
46.8	9.85
47.02	10.808
47.24	5.277
47.46	21.537
47.68	17.754
47.9	13.777
48.12	2.418
48.34	0.901
48.56	24.707
48.78	1.747
49	23.533
49.22	10.721
49.44	4.932
49.66	17.489
49.88	20.467
50.1	13.57
50.32	9.321
50.54	2.432
50.76	17.249
50.98	10.802
51.2	22.854
51.42	9.261
51.64	12.659
51.86	12.27
52.08	13.829
52.3	7.756
52.52	21.261
52.74	7.567
52.96	19.169
53.18	6.475
53.4	6.679
53.62	10.202
53.84	9.393
54.06	17.834
54.28	18.61
54.5	7.269
54.72	4.773
54.94	14.263
55.16	16.857
55.38	17.713
55.6	8.92
55.82	14.683
56.04	11.791
56.26	18.272
56.48	18.197
56.7	11.353
56.92	21.174
57.14	9.316
57.36	8.782
57.58	16.083
57.8	19.291
58.02	7.596
58.24	23.413
58.46	2.398
58.68	30.07
58.9	7.555
59.12	19.464
59.34	2.972
59.56	3.034
59.78	7.731
60	11.626
60.22	8.135
60.44	28.645
60.66	21.782
60.88	23.45
61.1	21.637
61.32	32.174
61.54	12.794
61.76	9.692
61.98	2.505
62.2	18.211
62.42	19.039
62.64	13.868
62.86	6.036
63.08	8.222
63.3	16.532
63.52	4.028
63.74	16.01
63.96	1.103
64.18	22.898
64.4	21.158
64.62	6.043
64.84	13.466
65.06	12.87
65.28	22.346
65.5	14.788
65.72	1.276
65.94	17.223
66.16	25.629
66.38	4.272
66.6	8.027
66.82	11.474
67.04	10.906
67.26	8.854
67.48	11.436
67.7	21.182
67.92	14.541
68.14	21.159
68.36	25.217
68.58	4.318
68.8	8.16
69.02	11.805
69.24	4.057
69.46	11.292
69.68	15.885
69.9	17.534
70.12	3.294
70.34	5.448
70.56	5.997
70.78	14.936
71	18.816
71.22	21.73
71.44	3.685
71.66	7.889
71.88	11.504
72.1	6.481
72.32	6.156
72.54	13.439
72.76	6.747
72.98	15.536
73.2	1.022
73.42	10.25
73.64	8.591
73.86	14.144
74.08	17.053
74.3	14.631
74.52	22.337
74.74	0.739
74.96	1.246
75.18	14.149
75.4	16.084
75.62	12.052
75.84	2.376
76.06	2.171
76.28	4.42
76.5	3.813
76.72	11.46
76.94	6.973
77.16	2.686
77.38	2.386
77.6	13.463
77.82	6.477
78.04	8.123
78.26	21.546
78.48	23.269
78.7	2.726
78.92	6.796
79.14	12.937
79.36	23.144
79.58	18.651
79.8	26.587
80.02	23.76
80.24	8.644
80.46	16.862
80.68	7.051
80.9	3.984
81.12	10.217
81.34	8.358
81.56	5.333
81.78	21.298
82	9.451
82.22	4.165
82.44	26.434
82.66	22.376
82.88	19.431
83.1	10.502
83.32	24.101
83.54	33.068
83.76	7.98
83.98	11.165
84.2	7.188
84.42	12.892
84.64	7.662
84.86	7.328
85.08	32.728
85.3	20.647
85.52	30.713
85.74	2.941
85.96	7.983
86.18	21.58
86.4	18.066
86.62	15.164
86.84	3.391
87.06	9.201
87.28	5.601
87.5	12.39
87.72	20.926
87.94	11.109
88.16	10.906
88.38	16.013
88.6	17.576
88.82	13.455
89.04	7.183
89.26	8.327
89.48	28.902
89.7	3.211
89.92	12.417
