Measurement: Powder, Xray Data XY Processed
Mineral: Ferro-edenite
Rruff sample: R060044
Ideal chemistry: NaCa_2_Fe^2+^_5_(Si_7_Al)O_22_(OH)_2_
Locality: Barkevik, Norway
Source: University of Arizona Mineral Museum
Description: Black cleavage fragment
Diffraction sample description: Powder
Measured chemistry: (Na_0.68_K_0.32_)(Ca_1.50_Na_0.50_)_Σ=2_(Fe^2+^_3.50_Mg_0.75_Fe^3+^_0.25_Ti_0.25_Mn_0.20_Al_0.05_)_Σ=5_(Si_6.64_Al_1.36_)_Σ=8_O_22_(OH)_2_
Cell parameters: a: 9.9593(6) b: 18.208(1) c: 5.3306(4) alpha: 90 beta: 104.935(5) gamma: 90 volume: 933.97(6) crystal system: monoclinic
x	intensity
5	0
5.22	15.539
5.44	23.887
5.66	21.229
5.88	22.933
6.1	30.989
6.32	7.103
6.54	16.36
6.76	5.988
6.98	3.795
7.2	2.312
7.42	17.748
7.64	14.671
7.86	9.05
8.08	3.731
8.3	7.442
8.52	10.735
8.74	5.964
8.96	12.553
9.18	16.515
9.4	20.37
9.62	7.61
9.84	3.287
10.06	25.597
10.28	50.188
10.5	46.261
10.72	12.809
10.94	16.171
11.16	14.531
11.38	21.28
11.6	3.823
11.82	16.802
12.04	8.993
12.26	16.673
12.48	18.744
12.7	19.979
12.92	27.52
13.14	4.883
13.36	16.078
13.58	22.965
13.8	25.839
14.02	22.525
14.24	1.646
14.46	19.736
14.68	13.199
14.9	5.786
15.12	17.348
15.34	3.079
15.56	9.133
15.78	10.279
16	14.882
16.22	0.794
16.44	24.173
16.66	17.119
16.88	7.836
17.1	4.663
17.32	6.189
17.54	5.671
17.76	7.405
17.98	21.826
18.2	9.804
18.42	48.123
18.64	7.344
18.86	27.52
19.08	4.683
19.3	13.419
19.52	27.197
19.74	30.281
19.96	16.323
20.18	21.996
20.4	13.858
20.62	2.635
20.84	18.062
21.06	10.716
21.28	18.433
21.5	21.325
21.72	10.22
21.94	8.6
22.16	12.48
22.38	9.496
22.6	13.708
22.82	4.672
23.04	21.07
23.26	12.019
23.48	5.915
23.7	0.543
23.92	16.533
24.14	2.267
24.36	25.999
24.58	15.531
24.8	0.878
25.02	8.414
25.24	14.73
25.46	2.839
25.68	26.121
25.9	11.777
26.12	45.054
26.34	18.357
26.56	13.249
26.78	12.338
27	52.286
27.22	17.195
27.44	13.45
27.66	12.441
27.88	8.481
28.1	31.926
28.32	123.123
28.54	24.15
28.76	9.567
28.98	2.915
29.2	28.061
29.42	7.119
29.64	14.19
29.86	15.65
30.08	43.071
30.3	25.345
30.52	16.769
30.74	9.471
30.96	13.776
31.18	17.886
31.4	12.587
31.62	25.241
31.84	5.923
32.06	14.732
32.28	4.353
32.5	25.207
32.72	22.662
32.94	34.67
33.16	0.001
33.38	15.973
33.6	2.912
33.82	13.847
34.04	6.743
34.26	65.723
34.48	17.885
34.7	7.938
34.92	12.67
35.14	29.201
35.36	6.648
35.58	1.156
35.8	15.907
36.02	4.463
36.24	3.292
36.46	15.278
36.68	22.357
36.9	6.281
37.12	11.022
37.34	17.12
37.56	9.642
37.78	10.901
38	21.449
38.22	37.868
38.44	5.1
38.66	0.044
38.88	0.976
39.1	18.057
39.32	17.481
39.54	13.857
39.76	15.362
39.98	9.831
40.2	24.101
40.42	2.131
40.64	6.542
40.86	21.478
41.08	5.899
41.3	24.668
41.52	14.066
41.74	13.41
41.96	2.591
42.18	26.522
42.4	4.432
42.62	8.374
42.84	4.563
43.06	18.995
43.28	18.905
43.5	1.498
43.72	22.181
43.94	21.56
44.16	7.106
44.38	26.69
44.6	32.556
44.82	18.627
45.04	19.701
45.26	11.86
45.48	18.577
45.7	15.68
45.92	28.066
46.14	17.083
46.36	16.215
46.58	30.168
46.8	12.995
47.02	3.802
47.24	24.656
47.46	0.862
47.68	1.88
47.9	27.989
48.12	29.466
48.34	29.187
48.56	7.716
48.78	20.003
49	18.029
49.22	10.431
49.44	25.807
49.66	7.447
49.88	16.298
50.1	23.883
50.32	7.896
50.54	12.241
50.76	36.568
50.98	14.746
51.2	21.907
51.42	3.335
51.64	7.514
51.86	5.708
52.08	7.065
52.3	2.328
52.52	22.495
52.74	21.267
52.96	2.793
53.18	9.396
53.4	12.438
53.62	5.423
53.84	22.852
54.06	7.4
54.28	9.045
54.5	2.505
54.72	3.395
54.94	9.434
55.16	24.798
55.38	14.943
55.6	23.372
55.82	12.064
56.04	23.613
56.26	18.19
56.48	17.388
56.7	12.538
56.92	17.635
57.14	28.757
57.36	28.537
57.58	1.397
57.8	17.93
58.02	32.009
58.24	27.942
58.46	10.926
58.68	29.645
58.9	20.101
59.12	23.861
59.34	13.614
59.56	22.965
59.78	18.407
60	2.926
60.22	5.254
60.44	27.953
60.66	14.121
60.88	14.612
61.1	29.403
61.32	13.012
61.54	16.74
61.76	13.912
61.98	25.654
62.2	7.215
62.42	16.879
62.64	0.154
62.86	9.258
63.08	12.823
63.3	12.809
63.52	4.928
63.74	10.354
63.96	49.339
64.18	11.521
64.4	16.871
64.62	9.234
64.84	23.366
65.06	18.876
65.28	18.514
65.5	0.885
65.72	11.056
65.94	3.88
66.16	14.727
66.38	8.03
66.6	3.703
66.82	11.483
67.04	5.366
67.26	5.464
67.48	3.233
67.7	0.291
67.92	16.745
68.14	16.87
68.36	23.755
68.58	11.358
68.8	14.871
69.02	24.765
69.24	12.541
69.46	21.305
69.68	9.687
69.9	25.648
70.12	14.662
70.34	24.046
70.56	12.65
70.78	9.987
71	0.453
71.22	24.839
71.44	3.067
71.66	34.489
71.88	29.653
72.1	2.562
72.32	40.619
72.54	15.11
72.76	14.013
72.98	3.739
73.2	7.817
73.42	9.449
73.64	28.847
73.86	20.765
74.08	2.239
74.3	29.915
74.52	10.809
74.74	4.724
74.96	15.731
75.18	0.356
75.4	22.663
75.62	8.469
75.84	4.871
76.06	16.98
76.28	3.944
76.5	2.176
76.72	17.957
76.94	25.075
77.16	21.256
77.38	14.02
77.6	12.936
77.82	7.232
78.04	2.112
78.26	14.035
78.48	5.621
78.7	2.527
78.92	14.219
79.14	25.018
79.36	10.166
79.58	2.407
79.8	3.701
80.02	15.832
80.24	14.826
80.46	5.578
80.68	13.755
80.9	11.087
81.12	18.378
81.34	8.476
81.56	7.284
81.78	8.575
82	27.164
82.22	10.786
82.44	4.178
82.66	10.162
82.88	29.113
83.1	25.565
83.32	4.996
83.54	16.778
83.76	22.608
83.98	2.51
84.2	24.172
84.42	9.373
84.64	14.698
84.86	11.12
85.08	18.615
85.3	11.51
85.52	8.793
85.74	13.911
85.96	20.143
86.18	11.466
86.4	17.551
86.62	13.563
86.84	34.366
87.06	15.038
87.28	6.257
87.5	9.381
87.72	10.748
87.94	30.732
88.16	16.949
88.38	12.239
88.6	10.371
88.82	20.305
89.04	32.257
89.26	20.646
89.48	5.265
89.7	7.591
89.92	6.668
