Measurement: Powder, Xray Data XY Processed
Mineral: Ferrimolybdite
Rruff sample: R050542
Ideal chemistry: Fe^3+^_2_(Mo^6+^O_4_)_3_7H_2_O
Locality: Alicante mine, Colorado, USA
Source: University of Arizona Mineral Museum
Description: Mat of parallel fibrous yellow-green crystals
Diffraction sample description: Powder
Measured chemistry: Fe^3+^_2.00_(Mo_1.00_O_4_)_3_Â·11H_2_O ; H2O estimated by difference
x	intensity
5	0
5.22	10.7511
5.44	12.3974
5.66	26.6817
5.88	5.92894
6.1	23.6374
6.32	3.16523
6.54	12.1099
6.76	1.65242
6.98	15.8631
7.2	1.02961
7.42	18.2166
7.64	6.60116
7.86	8.35716
8.08	5.91073
8.3	4.72655
8.52	20.3712
8.74	15.0893
8.96	15.9187
9.18	23.887
9.4	7.18617
9.62	5.44182
9.84	21.0965
10.06	13.444
10.28	81.2275
10.5	53.4007
10.72	78.2892
10.94	109.79
11.16	88.7765
11.38	73.751
11.6	51.7225
11.82	64.5021
12.04	12.6924
12.26	1.16162
12.48	4.56719
12.7	4.01007
12.92	21.0633
13.14	20.0105
13.36	7.8721
13.58	35.3689
13.8	3.97797
14.02	28.4758
14.24	3.60239
14.46	11.886
14.68	12.0353
14.9	25.0124
15.12	7.20507
15.34	12.0368
15.56	15.7965
15.78	14.2234
16	17.3534
16.22	9.78942
16.44	18.444
16.66	22.451
16.88	12.6344
17.1	12.4088
17.32	19.1913
17.54	13.4581
17.76	26.5784
17.98	15.4847
18.2	24.8914
18.42	44.6086
18.64	24.5283
18.86	20.933
19.08	4.56607
19.3	6.60609
19.52	30.1818
19.74	12.0744
19.96	6.29
20.18	4.95383
20.4	13.6939
20.62	8.7965
20.84	16.9123
21.06	9.55399
21.28	2.32119
21.5	0.85527
21.72	9.94784
21.94	6.76834
22.16	3.30131
22.38	0.179657
22.6	3.40706
22.82	18.7615
23.04	15.6768
23.26	8.13768
23.48	24.8285
23.7	13.3711
23.92	11.4555
24.14	5.11243
24.36	1.56765
24.58	13.8657
24.8	9.47559
25.02	27.0334
25.24	12.721
25.46	11.6371
25.68	12.4891
25.9	13.0414
26.12	15.8804
26.34	1.9163
26.56	9.97951
26.78	12.6001
27	12.9742
27.22	18.5371
27.44	5.361
27.66	4.81596
27.88	20.0758
28.1	37.0297
28.32	5.06644
28.54	26.3366
28.76	41.8517
28.98	26.8841
29.2	34.9197
29.42	19.1707
29.64	10.0203
29.86	13.6606
30.08	7.57474
30.3	11.2249
30.52	16.8354
30.74	17.6062
30.96	7.35958
31.18	5.57034
31.4	26.9625
31.62	18.0571
31.84	13.8733
32.06	13.2712
32.28	13.2755
32.5	12.1991
32.72	4.42914
32.94	15.6931
33.16	23.2013
33.38	22.912
33.6	19.959
33.82	2.62633
34.04	5.82885
34.26	26.9816
34.48	11.0424
34.7	4.05502
34.92	2.11764
35.14	7.25706
35.36	15.1702
35.58	20.538
35.8	15.4701
36.02	29.3402
36.24	23.6119
36.46	14.9954
36.68	41.4162
36.9	18.9718
37.12	10.3505
37.34	9.43922
37.56	1.60165
37.78	17.3251
38	10.4716
38.22	16.1935
38.44	15.6409
38.66	18.6717
38.88	5.52585
39.1	17.8798
39.32	23.747
39.54	8.48825
39.76	39.6005
39.98	19.1616
40.2	6.99699
40.42	16.6038
40.64	16.5814
40.86	12.2671
41.08	5.80554
41.3	25.3427
41.52	11.7129
41.74	20.2504
41.96	20.499
42.18	22.4379
42.4	8.4343
42.62	10.9413
42.84	8.25326
43.06	13.829
43.28	25.0648
43.5	14.1915
43.72	5.74011
43.94	5.8645
44.16	11.8977
44.38	24.433
44.6	25.4906
44.82	16.3153
45.04	2.30478
45.26	4.41343
45.48	2.77182
45.7	24.27
45.92	15.5481
46.14	1.83655
46.36	10.8024
46.58	14.8135
46.8	21.6074
47.02	3.78708
47.24	11.4774
47.46	9.64782
47.68	15.3469
47.9	7.47348
48.12	7.80291
48.34	16.7807
48.56	22.5525
48.78	14.4609
49	12.6968
49.22	7.29548
49.44	26.7177
49.66	1.30351
49.88	36.2749
50.1	12.3912
50.32	13.9106
50.54	22.7218
50.76	13.5462
50.98	4.25461
51.2	8.68582
51.42	13.2494
51.64	9.64899
51.86	11.9999
52.08	10.7844
52.3	19.4672
52.52	25.3028
52.74	21.4294
52.96	18.285
53.18	3.57343
53.4	32.2816
53.62	10.1411
53.84	2.74957
54.06	2.0135
54.28	15.3286
54.5	17.5491
54.72	6.9318
54.94	1.55319
55.16	11.1407
55.38	17.2277
55.6	16.9565
55.82	13.7857
56.04	17.2963
56.26	28.6424
56.48	15.7893
56.7	24.8078
56.92	15.9299
57.14	14.8481
57.36	12.1208
57.58	28.5163
57.8	6.04469
58.02	11.1987
58.24	29.635
58.46	28.5444
58.68	10.5129
58.9	9.59903
59.12	11.9126
59.34	23.7128
59.56	2.46985
59.78	27.4022
60	24.3484
60.22	12.6711
60.44	3.86841
60.66	31.9205
60.88	0.531731
61.1	2.8297
61.32	8.04684
61.54	12.6353
61.76	11.1171
61.98	10.2719
62.2	18.7626
62.42	19.114
62.64	12.5686
62.86	15.5019
63.08	12.665
63.3	19.4302
63.52	13.6764
63.74	3.38726
63.96	6.34567
64.18	23.3372
64.4	22.2806
64.62	8.72828
64.84	18.949
65.06	0.141106
65.28	20.9349
65.5	4.86442
65.72	6.16984
65.94	2.04171
66.16	19.8497
66.38	1.32629
66.6	3.00664
66.82	13.6439
67.04	13.1909
67.26	23.5605
67.48	7.93221
67.7	19.277
67.92	2.15001
68.14	36.5857
68.36	5.20796
68.58	22.3139
68.8	18.4332
69.02	0.864685
69.24	8.64573
69.46	6.05653
69.68	7.46744
69.9	21.9049
70.12	12.0335
70.34	19.8892
70.56	13.375
70.78	12.2145
71	14.3878
71.22	13.3399
71.44	4.46933
71.66	1.31414
71.88	17.3509
72.1	12.733
72.32	11.1281
72.54	11.6976
72.76	4.66118
72.98	5.55273
73.2	17.0758
73.42	13.9921
73.64	24.86
73.86	15.9061
74.08	3.89793
74.3	9.81615
74.52	20.9719
74.74	11.9039
74.96	3.0285
75.18	11.2239
75.4	22.4161
75.62	5.75317
75.84	8.5202
76.06	11.0081
76.28	14.4182
76.5	28.0283
76.72	21.3619
76.94	10.1557
77.16	9.41647
77.38	7.35573
77.6	14.8091
77.82	12.8272
78.04	14.5111
78.26	17.2072
78.48	2.19408
78.7	12.4342
78.92	16.2423
79.14	10.9471
79.36	9.05477
79.58	13.9406
79.8	10.5447
80.02	5.83749
80.24	9.64728
80.46	13.868
80.68	10.8181
80.9	7.71495
81.12	21.8284
81.34	10.8535
81.56	16.0431
81.78	17.0559
82	22.7967
82.22	14.8288
82.44	10.3692
82.66	12.5802
82.88	18.2719
83.1	9.20964
83.32	15.3495
83.54	2.63692
83.76	14.737
83.98	4.98811
84.2	28.3811
84.42	23.5764
84.64	8.7953
84.86	6.93189
85.08	22.9921
85.3	12.8239
85.52	15.1972
85.74	0.749851
85.96	0.916843
86.18	22.3945
86.4	5.98322
86.62	17.7735
86.84	21.2548
87.06	16.3102
87.28	3.46576
87.5	10.5977
87.72	2.30692
87.94	10.817
88.16	27.9813
88.38	22.7915
88.6	13.9708
88.82	3.73372
89.04	2.2502
89.26	17.4517
89.48	13.7223
89.7	5.89306
89.92	14.7713
