Measurement: Powder, Xray Data XY Processed
Mineral: Fibroferrite
Rruff sample: R061076
Ideal chemistry: Fe^3+^S^6+^O_4_(OH)5H_2_O
Locality: Cyprus
Source: Michael Scott
Description: Matted aggregates of pale yellow fibers
Diffraction sample description: Powder
Measured chemistry: Fe^3+^_1.00_(S_1.00_O_4_)(OH)Â·5H_2_O
Cell parameters: a: 23.553(2) b: 23.553(2) c: 7.742(2) alpha: 90 beta: 90 gamma: 120 volume: 3719.2(7) crystal system: hexagonal
x	intensity
5	0
5.22	9.93173
5.44	8.79883
5.66	27.3209
5.88	31.7577
6.1	32.8449
6.32	8.01431
6.54	50.2781
6.76	11.9589
6.98	27.9583
7.2	38.8686
7.42	190.083
7.64	135.048
7.86	13.9351
8.08	36.4668
8.3	0.776138
8.52	13.9712
8.74	36.7724
8.96	22.0161
9.18	8.84007
9.4	27.7321
9.62	7.52568
9.84	27.2353
10.06	22.5863
10.28	39.061
10.5	48.4824
10.72	8.43904
10.94	18.8915
11.16	53.5865
11.38	8.99022
11.6	11.518
11.82	25.1374
12.04	20.9818
12.26	58.5361
12.48	49.0988
12.7	38.5679
12.92	76.1118
13.14	45.4917
13.36	21.402
13.58	20.9309
13.8	43.7011
14.02	31.941
14.24	12.4848
14.46	27.1355
14.68	1.17511
14.9	16.4622
15.12	2.68837
15.34	22.8257
15.56	25.8786
15.78	21.6047
16	19.8514
16.22	15.5403
16.44	19.7166
16.66	46.6893
16.88	19.6471
17.1	16.9277
17.32	29.1207
17.54	21.8304
17.76	2.49263
17.98	11.6891
18.2	34.5725
18.42	34.8243
18.64	58.5346
18.86	41.1404
19.08	41.9509
19.3	30.3511
19.52	42.0275
19.74	18.3934
19.96	102.098
20.18	31.8277
20.4	9.64369
20.62	41.2734
20.84	15.01
21.06	1.81722
21.28	20.5092
21.5	9.5275
21.72	3.38638
21.94	37.4929
22.16	58.7346
22.38	17.4078
22.6	49.5386
22.82	0.77919
23.04	33.3389
23.26	26.3791
23.48	19.1762
23.7	4.74608
23.92	36.3203
24.14	10.5816
24.36	40.3885
24.58	61.5335
24.8	18.8049
25.02	28.8303
25.24	37.1343
25.46	31.1961
25.68	76.3696
25.9	74.2044
26.12	36.8395
26.34	30.3888
26.56	25.236
26.78	12.7936
27	10.608
27.22	38.8876
27.44	34.4476
27.66	27.1695
27.88	36.6727
28.1	1.03366
28.32	11.468
28.54	11.8495
28.76	29.1934
28.98	18.6232
29.2	20.6163
29.42	28.6686
29.64	34.8177
29.86	35.1806
30.08	17.4167
30.3	49.0314
30.52	35.5721
30.74	5.04536
30.96	40.2344
31.18	15.6561
31.4	33.7799
31.62	7.95291
31.84	32.2792
32.06	19.6101
32.28	16.2213
32.5	2.75911
32.72	29.3052
32.94	57.5174
33.16	38.0834
33.38	9.27437
33.6	52.8471
33.82	41.2902
34.04	37.5631
34.26	21.9646
34.48	27.352
34.7	27.2642
34.92	13.5009
35.14	38.6508
35.36	38.4047
35.58	22.6991
35.8	16.7064
36.02	31.9714
36.24	66.1975
36.46	10.0193
36.68	14.0163
36.9	25.6797
37.12	32.3816
37.34	30.7114
37.56	10.5819
37.78	19.7797
38	13.1456
38.22	11.7427
38.44	1.26562
38.66	30.7227
38.88	28.1507
39.1	39.0896
39.32	14.1967
39.54	35.163
39.76	29.3181
39.98	27.1361
40.2	27.7119
40.42	7.96822
40.64	23.4962
40.86	28.6464
41.08	6.8002
41.3	25.9045
41.52	19.0221
41.74	12.0273
41.96	0.630035
42.18	40.1267
42.4	5.0602
42.62	1.70901
42.84	11.8817
43.06	19.9834
43.28	33.9255
43.5	29.2418
43.72	39.1755
43.94	16.769
44.16	1.13878
44.38	14.387
44.6	26.5793
44.82	46.6917
45.04	56.0688
45.26	31.1614
45.48	30.9669
45.7	31.8707
45.92	12.8979
46.14	12.4296
46.36	14.0774
46.58	9.1284
46.8	3.72032
47.02	15.7122
47.24	16.4051
47.46	31.6327
47.68	46.2139
47.9	23.7458
48.12	8.6779
48.34	24.5051
48.56	34.2523
48.78	7.52586
49	19.0668
49.22	12.7054
49.44	37.7559
49.66	11.0182
49.88	1.08859
50.1	46.3411
50.32	14.5456
50.54	35.79
50.76	24.2338
50.98	6.88061
51.2	4.75993
51.42	12.5274
51.64	21.1013
51.86	16.8946
52.08	26.5596
52.3	27.1311
52.52	10.7399
52.74	17.9211
52.96	27.9787
53.18	23.8331
53.4	27.6864
53.62	0.899475
53.84	21.8424
54.06	14.5812
54.28	31.2902
54.5	23.5694
54.72	29.5883
54.94	11.8679
55.16	28.4276
55.38	37.9208
55.6	36.3139
55.82	18.448
56.04	21.8484
56.26	11.5642
56.48	7.27129
56.7	14.6063
56.92	28.5914
57.14	2.32942
57.36	31.1014
57.58	20.1638
57.8	39.1838
58.02	8.09877
58.24	24.8489
58.46	46.812
58.68	12.1662
58.9	21.0382
59.12	30.3974
59.34	2.96556
59.56	31.3671
59.78	20.1305
60	16.4154
60.22	3.69842
60.44	16.45
60.66	16.9174
60.88	33.4618
61.1	9.10455
61.32	30.1373
61.54	25.7247
61.76	16.7144
61.98	26.0375
62.2	15.4334
62.42	9.84297
62.64	59.0713
62.86	11.9049
63.08	10.1535
63.3	26.993
63.52	27.1809
63.74	27.1572
63.96	43.4325
64.18	24.3497
64.4	24.6661
64.62	14.0904
64.84	45.3272
65.06	33.2521
65.28	33.171
65.5	17.2842
65.72	51.6747
65.94	39.067
66.16	1.52992
66.38	5.51146
66.6	20.5043
66.82	10.6227
67.04	21.0737
67.26	31.1703
67.48	19.3404
67.7	35.4836
67.92	11.283
68.14	31.4645
68.36	22.626
68.58	31.7838
68.8	10.0546
69.02	9.6591
69.24	2.64165
69.46	14.1996
69.68	20.2287
69.9	14.5
70.12	12.6473
70.34	25.4668
70.56	6.46875
70.78	29.8112
71	11.003
71.22	22.6834
71.44	29.4698
71.66	32.1214
71.88	18.2982
72.1	44.8387
72.32	0.155548
72.54	21.8489
72.76	1.39053
72.98	33.1802
73.2	20.2189
73.42	16.6566
73.64	14.3519
73.86	31.1122
74.08	10.8382
74.3	8.25315
74.52	7.06448
74.74	26.2149
74.96	23.7221
75.18	22.3724
75.4	12.2896
75.62	19.9625
75.84	15.2262
76.06	10.4515
76.28	16.8093
76.5	20.0404
76.72	0.235413
76.94	16.5781
77.16	2.0305
77.38	10.2751
77.6	3.782
77.82	29.9364
78.04	19.5651
78.26	13.3348
78.48	16.4761
78.7	24.1578
78.92	44.1825
79.14	5.61665
79.36	20.5809
79.58	22.0203
79.8	6.51227
80.02	43.7879
80.24	28.9816
80.46	34.6216
80.68	9.52911
80.9	12.5761
81.12	18.1014
81.34	23.992
81.56	24.3496
81.78	17.4188
82	35.7781
82.22	32.4974
82.44	11.7079
82.66	11.3165
82.88	10.7826
83.1	4.51864
83.32	30.735
83.54	37.1941
83.76	33.4394
83.98	15.5134
84.2	4.0348
84.42	25.7938
84.64	9.3118
84.86	8.12927
85.08	7.64009
85.3	28.2768
85.52	43.9593
85.74	11.8776
85.96	1.95487
86.18	19.5305
86.4	19.5279
86.62	48.3847
86.84	13.8905
87.06	19.0634
87.28	35.611
87.5	15.6975
87.72	19.5144
87.94	18.0903
88.16	19.2275
88.38	21.9778
88.6	33.7429
88.82	19.598
89.04	12.7582
89.26	28.2142
89.48	17.8858
89.7	25.6913
89.92	12.257
