Measurement: Powder, Xray Data XY Processed
Mineral: Fiedlerite
Rruff sample: R060859
Ideal chemistry: Pb^2+^_3_Cl_4_F(OH)H_2_O
Locality: Laurium, Attica, Greece
Source: Michael Scott
Description: Colorless prismatic crystals associated with phosgenite, polytype 1A
Diffraction sample description: Single crystal, powder profile is calculated
Measured chemistry: Pb_3.00_Cl_4.00_F_1.00_(OH)Â·H_2_O ; OH and H_2_O estimated by difference
Cell parameters: a: 8.569(3) b: 8.051(2) c: 7.266(2) alpha: 89.95(2) beta: 102.03(2) gamma: 103.55(2) volume: 476.0(1) crystal system: triclinic
x	intensity
5	0
5.22	0
5.44	0
5.66	0
5.88	0
6.1	0
6.32	0
6.54	0
6.76	0
6.98	0
7.2	0
7.42	0
7.64	0
7.86	0
8.08	0
8.3	0
8.52	0
8.74	0
8.96	0
9.18	0
9.4	0
9.62	0
9.84	0
10.06	0
10.28	0
10.5	0
10.72	0
10.94	2.924
11.16	0
11.38	0.647
11.6	0
11.82	0
12.04	0
12.26	0
12.48	18.856
12.7	0
12.92	0
13.14	0
13.36	0
13.58	0.001
13.8	0.454
14.02	0
14.24	0
14.46	0
14.68	6.882
14.9	0
15.12	0
15.34	0
15.56	0
15.78	0
16	0
16.22	0
16.44	20.248
16.66	0
16.88	0
17.1	0
17.32	25.699
17.54	10.677
17.76	0
17.98	0
18.2	6.905
18.42	0
18.64	0
18.86	0
19.08	0
19.3	0
19.52	0
19.74	18.477
19.96	0
20.18	0
20.4	0
20.62	0
20.84	0
21.06	0
21.28	0
21.5	0
21.72	0.022
21.94	0.021
22.16	2.781
22.38	0
22.6	0.231
22.82	21.326
23.04	0.001
23.26	4.735
23.48	0
23.7	0
23.92	0
24.14	0
24.36	0
24.58	0
24.8	0
25.02	43.502
25.24	0.022
25.46	19.917
25.68	0
25.9	0
26.12	0
26.34	0
26.56	37.249
26.78	0.019
27	19.854
27.22	0
27.44	38.032
27.66	5.437
27.88	0
28.1	5.156
28.32	0.007
28.54	0
28.76	5.683
28.98	0.787
29.2	0
29.42	1.826
29.64	0.795
29.86	0
30.08	0
30.3	1.67
30.52	0
30.74	0
30.96	0
31.18	0
31.4	0
31.62	0
31.84	50.723
32.06	0.491
32.28	2.371
32.5	0
32.72	13.084
32.94	0.02
33.16	3.104
33.38	0.005
33.6	0.151
33.82	0
34.04	0
34.26	0
34.48	0.904
34.7	0
34.92	7.668
35.14	30.156
35.36	10.453
35.58	17.232
35.8	0.215
36.02	0.159
36.24	1.957
36.46	0
36.68	0.77
36.9	3.473
37.12	2.815
37.34	2.128
37.56	0.558
37.78	0.001
38	6.13
38.22	0
38.44	0
38.66	2.194
38.88	0.022
39.1	0.068
39.32	0.322
39.54	1.054
39.76	13.316
39.98	0.495
40.2	1.682
40.42	2.928
40.64	0.025
40.86	0.813
41.08	0.005
41.3	0
41.52	0
41.74	0
41.96	6.856
42.18	1.202
42.4	2.431
42.62	0.242
42.84	0.391
43.06	0.001
43.28	0.003
43.5	0.159
43.72	0.848
43.94	0
44.16	0.507
44.38	9.128
44.6	5.333
44.82	1.894
45.04	51.135
45.26	1.368
45.48	1.957
45.7	5.521
45.92	7.525
46.14	0.04
46.36	8.512
46.58	1.121
46.8	0.007
47.02	0.471
47.24	0.026
47.46	13.291
47.68	5.558
47.9	0.167
48.12	0.82
48.34	3.465
48.56	1.062
48.78	0.208
49	1.769
49.22	3.315
49.44	0.694
49.66	0.003
49.88	0.07
50.1	5.132
50.32	0.481
50.54	2.654
50.76	1.006
50.98	8.491
51.2	3.679
51.42	0.891
51.64	1.427
51.86	0.046
52.08	1.08
52.3	5.157
52.52	0.666
52.74	0.236
52.96	0
53.18	0.036
53.4	2.101
53.62	7.825
53.84	1.195
54.06	2.21
54.28	0.001
54.5	0.425
54.72	1.735
54.94	0.944
55.16	0.997
55.38	1.94
55.6	0.713
55.82	5.009
56.04	0.712
56.26	0.589
56.48	3.41
56.7	9.281
56.92	2.436
57.14	0.003
57.36	0.021
57.58	0.448
57.8	0.027
58.02	0.143
58.24	0.494
58.46	1.179
58.68	0.148
58.9	0.148
59.12	0.537
59.34	0.384
59.56	1.209
59.78	1.284
60	2.122
60.22	0.707
60.44	1.894
60.66	0.49
60.88	1.135
61.1	1.132
61.32	1.585
61.54	7.548
61.76	2.881
61.98	1.038
62.2	0.407
62.42	0.049
62.64	0.001
62.86	0.03
63.08	0.464
63.3	2.33
63.52	0.478
63.74	0.463
63.96	1.326
64.18	0.637
64.4	0.68
64.62	0.612
64.84	0.407
65.06	4.397
65.28	2.525
65.5	0.853
65.72	5.685
65.94	1.92
66.16	0.403
66.38	0.202
66.6	3.788
66.82	1.962
67.04	0.62
67.26	1.555
67.48	2.087
67.7	0.402
67.92	0
68.14	1.88
68.36	1.96
68.58	0.23
68.8	0.236
69.02	0.817
69.24	0.541
69.46	3.21
69.68	3.464
69.9	0.639
70.12	0.601
70.34	0.667
70.56	0.345
70.78	0.815
71	0.231
71.22	0.493
71.44	2.039
71.66	3.302
71.88	2.03
72.1	2.074
72.32	1.192
72.54	0.882
72.76	0.391
72.98	0.003
73.2	1.268
73.42	0.948
73.64	0.229
73.86	0.303
74.08	5.179
74.3	3.216
74.52	0.523
74.74	1.413
74.96	0.785
75.18	0.838
75.4	1.485
75.62	0.557
75.84	0.204
76.06	0.258
76.28	0.346
76.5	3.171
76.72	2.161
76.94	1.204
77.16	0.689
77.38	0.096
77.6	0.003
77.82	0.033
78.04	0.466
78.26	2.583
78.48	1.208
78.7	0.386
78.92	0.308
79.14	1.473
79.36	2.01
79.58	1.007
79.8	0.397
80.02	1.089
80.24	1.053
80.46	0.524
80.68	0.927
80.9	0.359
81.12	0.451
81.34	0.919
81.56	0.873
81.78	0.1
82	0.31
82.22	0.741
82.44	0.598
82.66	1.018
82.88	1.082
83.1	3.424
83.32	1.247
83.54	1.167
83.76	0.661
83.98	1.475
84.2	2.506
84.42	1.996
84.64	1.267
84.86	3.275
85.08	1.599
85.3	0.589
85.52	0.662
85.74	0.684
85.96	0.56
86.18	0.159
86.4	0.256
86.62	1.637
86.84	1.185
87.06	0.814
87.28	0.598
87.5	0.282
87.72	0.144
87.94	0.035
88.16	0.278
88.38	0.863
88.6	0.426
88.82	0.148
89.04	0.094
89.26	0.081
89.48	0.41
89.7	0.331
89.92	1.19
