Measurement: Powder, Xray Data XY Processed
Mineral: Fluorite
Rruff sample: R050115
Ideal chemistry: CaF_2_
Locality: Isthak Valley Iskardu, N.A. Gilgit, Pakistan
Source: Syed Shah
Description: Colorless fragment
Diffraction sample description: Powder
Measured chemistry: CaF_2_
Cell parameters: a: 5.46438(5) b: 5.46438(5) c: 5.46438(5) alpha: 90. beta: 90. gamma: 90. volume: 163.163(5) crystal system: cubic
x	intensity
5	0
5.22	4.91164
5.44	10.109
5.66	11.7393
5.88	14.6821
6.1	20.9922
6.32	25.3951
6.54	22.4527
6.76	11.0413
6.98	2.52175
7.2	6.15122
7.42	4.6978
7.64	9.25266
7.86	2.97148
8.08	10.2696
8.3	6.55549
8.52	4.61122
8.74	1.49457
8.96	2.33006
9.18	4.87967
9.4	5.64776
9.62	3.16863
9.84	7.95587
10.06	11.7277
10.28	4.76473
10.5	3.61737
10.72	7.76725
10.94	12.981
11.16	5.13631
11.38	0.661704
11.6	6.70201
11.82	6.01409
12.04	5.32197
12.26	6.57413
12.48	5.76931
12.7	8.90563
12.92	12.1594
13.14	5.25076
13.36	3.45332
13.58	3.72676
13.8	1.94064
14.02	6.96035
14.24	3.14656
14.46	6.26409
14.68	6.39475
14.9	0.504594
15.12	1.54157
15.34	4.83231
15.56	3.78586
15.78	2.79625
16	6.82646
16.22	3.00095
16.44	6.98975
16.66	3.89808
16.88	5.85225
17.1	6.58576
17.32	0.307197
17.54	5.45256
17.76	2.57288
17.98	3.58047
18.2	11.5774
18.42	3.71755
18.64	7.664
18.86	1.06315
19.08	7.05199
19.3	0.281179
19.52	1.49123
19.74	3.53492
19.96	0.674018
20.18	0.615735
20.4	1.70989
20.62	0.753317
20.84	2.69261
21.06	0.556838
21.28	5.6551
21.5	1.78794
21.72	2.70578
21.94	1.65338
22.16	7.64331
22.38	4.63193
22.6	6.6766
22.82	3.75393
23.04	0.755468
23.26	1.83598
23.48	4.84049
23.7	3.07713
23.92	6.08035
24.14	6.11139
24.36	2.03722
24.58	1.00853
24.8	4.02972
25.02	2.02211
25.24	1.98902
25.46	5.99206
25.68	2.06451
25.9	5.08612
26.12	5.04859
26.34	3.6844
26.56	3.40496
26.78	0.118775
27	0.792773
27.22	2.39542
27.44	7.00308
27.66	6.60171
27.88	5.30212
28.1	47.9947
28.32	2148.53
28.54	49.4108
28.76	10.673
28.98	5.09981
29.2	5.4407
29.42	0.76388
29.64	3.23642
29.86	6.65102
30.08	1.98216
30.3	2.22956
30.52	4.50966
30.74	2.93615
30.96	0.022728
31.18	1.94387
31.4	2.82014
31.62	2.91754
31.84	0.948
32.06	4.86076
32.28	4.89302
32.5	1.01442
32.72	1.22284
32.94	4.21249
33.16	3.05143
33.38	7.1049
33.6	3.17202
33.82	5.40885
34.04	5.34905
34.26	3.40252
34.48	0.492635
34.7	2.67311
34.92	3.75158
35.14	7.70652
35.36	2.7051
35.58	4.76105
35.8	5.74589
36.02	1.77123
36.24	2.7139
36.46	0.729627
36.68	6.72382
36.9	2.82578
37.12	4.67825
37.34	3.57898
37.56	2.60191
37.78	1.62986
38	3.66543
38.22	3.76076
38.44	1.76437
38.66	3.71395
38.88	4.8575
39.1	1.9219
39.32	0.827753
39.54	0.812127
39.76	3.82946
39.98	3.75283
40.2	0.739718
40.42	5.82712
40.64	4.76497
40.86	1.75932
41.08	2.77756
41.3	0.356953
41.52	1.60057
41.74	1.69873
41.96	7.66863
42.18	4.68451
42.4	7.63902
42.62	2.63573
42.84	1.53731
43.06	2.55127
43.28	0.431146
43.5	4.4473
43.72	1.59688
43.94	1.55025
44.16	6.46156
44.38	1.29031
44.6	2.16435
44.82	2.04759
45.04	4.62544
45.26	3.16011
45.48	8.61023
45.7	0.145339
45.92	3.60921
46.14	5.87358
46.36	3.39368
46.58	10.9551
46.8	42.8284
47.02	565.984
47.24	153.78
47.46	11.0647
47.68	12.3251
47.9	1.39301
48.12	2.96937
48.34	2.2354
48.56	0.529151
48.78	5.81296
49	7.09638
49.22	3.15419
49.44	0.562917
49.66	3.59427
49.88	6.75987
50.1	7.92971
50.32	1.09922
50.54	4.2062
50.76	6.51259
50.98	1.79781
51.2	3.01358
51.42	2.2232
51.64	1.18085
51.86	7.10452
52.08	0.780748
52.3	2.33236
52.52	0.49753
52.74	3.52309
52.96	0.623674
53.18	4.56563
53.4	2.567
53.62	0.475619
53.84	7.44177
54.06	5.30498
54.28	6.17132
54.5	1.04577
54.72	2.73494
54.94	1.45968
55.16	0.434106
55.38	6.2793
55.6	12.2832
55.82	291.217
56.04	24.355
56.26	5.40267
56.48	1.53473
56.7	0.887659
56.92	6.06507
57.14	3.31431
57.36	0.507376
57.58	2.66055
57.8	3.88004
58.02	5.85744
58.24	1.04146
58.46	4.9094
58.68	4.91421
58.9	0.816593
59.12	1.84231
59.34	0.853488
59.56	0.196852
59.78	1.81036
60	1.82094
60.22	3.85701
60.44	1.93013
60.66	6.95188
60.88	3.02132
61.1	2.03706
61.32	3.06988
61.54	4.11382
61.76	3.13146
61.98	2.19627
62.2	1.30844
62.42	2.41775
62.64	1.31322
62.86	3.26385
63.08	2.31537
63.3	0.73057
63.52	3.2556
63.74	2.28963
63.96	1.20086
64.18	3.24558
64.4	5.3731
64.62	3.2451
64.84	0.33216
65.06	3.4282
65.28	3.44253
65.5	6.44169
65.72	1.42107
65.94	3.57186
66.16	1.49008
66.38	1.4353
66.6	5.31617
66.82	1.16843
67.04	3.0919
67.26	1.95737
67.48	4.78734
67.7	0.6773
67.92	2.6299
68.14	0.606634
68.36	3.48752
68.58	16.6094
68.8	18.8376
69.02	5.82861
69.24	2.93528
69.46	6.02376
69.68	6.1719
69.9	0.726429
70.12	5.38178
70.34	0.539518
70.56	1.58245
70.78	5.66736
71	0.638072
71.22	2.53986
71.44	0.60081
71.66	2.64068
71.88	2.7056
72.1	0.650977
72.32	2.6797
72.54	3.72676
72.76	0.694074
72.98	1.5683
73.2	0.480912
73.42	0.518168
73.64	2.35412
73.86	4.23975
74.08	0.090452
74.3	1.98988
74.52	1.80673
74.74	0.619587
74.96	0.395954
75.18	1.27754
75.4	2.16514
75.62	6.9843
75.84	77.9257
76.06	43.0624
76.28	5.02159
76.5	5.00699
76.72	0.985513
76.94	0.151814
77.16	1.74586
77.38	1.35342
77.6	1.57602
77.82	6.74995
78.04	2.92193
78.26	2.89662
78.48	2.94621
78.7	1.09339
78.92	3.28869
79.14	3.28103
79.36	4.33178
79.58	4.44368
79.8	2.50915
80.02	3.58664
80.24	2.59065
80.46	0.336105
80.68	0.296393
80.9	5.6897
81.12	0.373329
81.34	2.48335
81.56	2.43244
81.78	6.39557
82	0.28002
82.22	1.27282
82.44	2.12692
82.66	6.06544
82.88	2.03231
83.1	0.082872
83.32	1.09465
83.54	5.15493
83.76	1.27512
83.98	0.63992
84.2	1.43583
84.42	2.5556
84.64	7.50601
84.86	3.63675
85.08	3.65308
85.3	4.46896
85.52	2.2606
85.74	5.0019
85.96	1.27376
86.18	0.333846
86.4	1.07609
86.62	4.69322
86.84	6.45163
87.06	10.3084
87.28	34.9207
87.5	74.129
87.72	147.212
87.94	9.43036
88.16	5.72714
88.38	6.04124
88.6	1.30803
88.82	8.49012
89.04	2.9321
89.26	1.36472
89.48	5.40317
89.7	0.006873
89.92	1.07992
