Measurement: Powder, Xray Data XY Processed
Mineral: Fluorapophyllite-(K)
Rruff sample: R040095
Ideal chemistry: KCa_4_Si_8_O_20_F8H_2_O
Locality: unknown
Source: University of Arizona Mineral Museum
Description: Colorless crystals
Diffraction sample description: Powder
Measured chemistry: (K_0.90_Na_0.04_)Ca_3.96_Si_8.00_O_20_(F_0.82_(OH)_0.18_)Â·8H_2_O
Cell parameters: a: 8.9722(3) b: 8.9722(3) c: 15.7928(5) alpha: 90. beta: 90. gamma: 90. volume: 1271.35(8) crystal system: tetragonal
x	intensity
5	0
5.22	1.228
5.44	3.274
5.66	24.073
5.88	14.382
6.1	1.913
6.32	11.815
6.54	6.44
6.76	10.44
6.98	11.288
7.2	0.361
7.42	3.154
7.64	5.74
7.86	3.541
8.08	1.731
8.3	13.025
8.52	8.517
8.74	3.8
8.96	0.897
9.18	3.339
9.4	6.429
9.62	4.521
9.84	3.42
10.06	4.322
10.28	12.096
10.5	4.871
10.72	7.656
10.94	13.442
11.16	38.18
11.38	407.879
11.6	3.894
11.82	4.091
12.04	1.093
12.26	0.214
12.48	3.495
12.7	0.712
12.92	10.952
13.14	2.255
13.36	13.493
13.58	8.731
13.8	6.075
14.02	19.296
14.24	3.643
14.46	0.226
14.68	5.996
14.9	10.14
15.12	1.459
15.34	9.932
15.56	0.96
15.78	5.452
16	1.698
16.22	0.23
16.44	0.328
16.66	2.613
16.88	7.574
17.1	2.642
17.32	0.857
17.54	4.638
17.76	2.489
17.98	6.375
18.2	0.819
18.42	8.41
18.64	3.078
18.86	5.814
19.08	3.615
19.3	4.465
19.52	128.135
19.74	35.914
19.96	14.184
20.18	3.557
20.4	4.612
20.62	3.714
20.84	0.85
21.06	4.883
21.28	8.839
21.5	1.719
21.72	5.427
21.94	0.876
22.16	17.195
22.38	14.751
22.6	238.346
22.82	47.108
23.04	15.905
23.26	7.646
23.48	8.504
23.7	5.422
23.92	2.351
24.14	7.319
24.36	4.699
24.58	2.661
24.8	58.763
25.02	50.507
25.24	15.745
25.46	5.89
25.68	10.953
25.9	1.92
26.12	4.485
26.34	2.786
26.56	59.714
26.78	7.413
27	17.118
27.22	8.705
27.44	0.282
27.66	5.26
27.88	6.331
28.1	61.211
28.32	3.346
28.54	6.818
28.76	3.346
28.98	4.218
29.2	8.126
29.42	5.074
29.64	15.006
29.86	51.827
30.08	417.574
30.3	29.006
30.52	33.022
30.74	9.727
30.96	5.942
31.18	4.807
31.4	0.326
31.62	8.547
31.84	29.954
32.06	19.232
32.28	7.377
32.5	11.613
32.72	2.344
32.94	5.82
33.16	1.954
33.38	4.406
33.6	37.797
33.82	4.166
34.04	14.193
34.26	4.193
34.48	4.965
34.7	4.807
34.92	4.553
35.14	0.962
35.36	1.632
35.58	8.085
35.8	18.658
36.02	113.211
36.24	142.891
36.46	19.857
36.68	10.829
36.9	22.156
37.12	18.777
37.34	3.228
37.56	3.938
37.78	0.395
38	8.165
38.22	1.67
38.44	3.455
38.66	7.961
38.88	1.163
39.1	0.199
39.32	4.048
39.54	4.041
39.76	2.824
39.98	12.34
40.2	9.925
40.42	3.621
40.64	3.285
40.86	7.491
41.08	35.466
41.3	13.471
41.52	1.253
41.74	7.142
41.96	11.894
42.18	3.979
42.4	4.069
42.62	10.106
42.84	73.178
43.06	47.46
43.28	11.555
43.5	4.087
43.72	3.095
43.94	3.869
44.16	3.81
44.38	13.725
44.6	6.096
44.82	5.173
45.04	15.368
45.26	21.454
45.48	2.394
45.7	3.62
45.92	3.973
46.14	3.279
46.36	5.65
46.58	4.91
46.8	10.182
47.02	9.004
47.24	15.125
47.46	3.187
47.68	11.624
47.9	5.931
48.12	5.897
48.34	1.846
48.56	4.761
48.78	6.92
49	4.831
49.22	3.035
49.44	5.266
49.66	0.045
49.88	3.787
50.1	0.151
50.32	0.611
50.54	2.717
50.76	0.893
50.98	12.543
51.2	16.966
51.42	3.631
51.64	24.729
51.86	39.629
52.08	1.677
52.3	5.856
52.52	6.582
52.74	4.342
52.96	2.597
53.18	18.989
53.4	4.262
53.62	3.635
53.84	3.481
54.06	1.369
54.28	4.436
54.5	1.477
54.72	19.966
54.94	17.782
55.16	5.536
55.38	14.517
55.6	7.346
55.82	9.134
56.04	0.308
56.26	0.067
56.48	6.903
56.7	5.637
56.92	9.413
57.14	0.737
57.36	9.258
57.58	10.859
57.8	8.016
58.02	8.128
58.24	4.538
58.46	45.725
58.68	1.956
58.9	2.189
59.12	5.522
59.34	0.155
59.56	12.296
59.78	51.705
60	14.443
60.22	3.379
60.44	8.577
60.66	3.21
60.88	4.851
61.1	2.339
61.32	2.346
61.54	3.153
61.76	5.792
61.98	3.296
62.2	21.857
62.42	8.148
62.64	2.023
62.86	10.813
63.08	18.99
63.3	5.334
63.52	7.195
63.74	8.722
63.96	12.942
64.18	3.31
64.4	6.819
64.62	3.123
64.84	6.292
65.06	7.417
65.28	6.361
65.5	3.511
65.72	9.484
65.94	7.779
66.16	8.794
66.38	3.946
66.6	2.009
66.82	4.058
67.04	7.132
67.26	0.403
67.48	0.424
67.7	9.866
67.92	2.847
68.14	12.814
68.36	1.743
68.58	2.718
68.8	0.594
69.02	9.806
69.24	2.549
69.46	12.437
69.68	11.088
69.9	3.105
70.12	4.706
70.34	4.749
70.56	7.705
70.78	3.718
71	8.875
71.22	10.135
71.44	3.222
71.66	14.445
71.88	2.466
72.1	0.591
72.32	2.504
72.54	2.391
72.76	5.142
72.98	4.969
73.2	1.805
73.42	11.541
73.64	6.183
73.86	11.723
74.08	6.625
74.3	7.771
74.52	0.04
74.74	7.116
74.96	3.308
75.18	10.512
75.4	2.724
75.62	0.156
75.84	3.938
76.06	10.225
76.28	1.267
76.5	8.178
76.72	12.153
76.94	15
77.16	3.976
77.38	2.058
77.6	12.149
77.82	3.307
78.04	0.47
78.26	2.7
78.48	3.689
78.7	0.283
78.92	0.206
79.14	3.876
79.36	4.85
79.58	7.829
79.8	4.974
80.02	6.931
80.24	8.367
80.46	1.361
80.68	8.478
80.9	3.493
81.12	2.699
81.34	2.132
81.56	4.227
81.78	7.444
82	2.498
82.22	6.33
82.44	5.275
82.66	8.041
82.88	1.92
83.1	1.722
83.32	4.58
83.54	6.503
83.76	1.09
83.98	0.866
84.2	10.888
84.42	15.023
84.64	0.972
84.86	8.202
85.08	7.375
85.3	4.439
85.52	0.45
85.74	7.466
85.96	7.368
86.18	5.355
86.4	10.328
86.62	8.18
86.84	8.313
87.06	10.432
87.28	21.156
87.5	10.11
87.72	8.249
87.94	1.419
88.16	6.738
88.38	0.036
88.6	4.264
88.82	6.475
89.04	7.493
89.26	3.581
89.48	1.942
89.7	6.933
89.92	9.334
