Measurement: Powder, Xray Data XY Processed
Mineral: Fluoro-richterite
Rruff sample: R040019
Ideal chemistry: Na(NaCa)Mg_5_Si_8_O_22_F_2_
Locality: Wilberforce, Ontario, Canada
Source: University of Arizona Mineral Museum
Description: Brown prismatic crystals
Diffraction sample description: Powder
Measured chemistry: (Na_0.59_K_0.27_[box]_0.14_)_Σ=1_(Ca_1.30_Na_0.70_)_Σ=2_(Mg_4.67_Fe_0.17_Fe^3+^_0.10_Ti_0.03_Mn_0.02_Al_0.01_)_Σ=5_(Si_7.67_Al_0.33_)_Σ=8_(F_1.12_(OH)_0.88_)_Σ=2_; OH estimated by charge balance
Cell parameters: a: 9.8859(5) b: 18.0004(8) c: 5.2731(3) alpha: 90. beta: 104.623(5) gamma: 90. volume: 907.98(6) crystal system: monoclinic
x	intensity
5	0
5.22	16.3836
5.44	7.89212
5.66	12.4497
5.88	11.044
6.1	10.0667
6.32	10.294
6.54	4.47658
6.76	5.71555
6.98	7.42941
7.2	12.2362
7.42	19.3737
7.64	1.3926
7.86	4.3552
8.08	9.39702
8.3	5.39676
8.52	4.53088
8.74	5.82707
8.96	8.17617
9.18	9.12156
9.4	7.93473
9.62	1.51718
9.84	25.1126
10.06	2.82586
10.28	6.51245
10.5	159.323
10.72	11.2394
10.94	0.824718
11.16	11.1341
11.38	6.56778
11.6	0.819166
11.82	3.1334
12.04	0.699465
12.26	0.996468
12.48	10.3197
12.7	6.72752
12.92	11.8258
13.14	4.74548
13.36	20.9526
13.58	9.0884
13.8	17.0035
14.02	6.80513
14.24	5.66626
14.46	1.6838
14.68	13.2791
14.9	3.29347
15.12	13.5914
15.34	18.1156
15.56	9.9893
15.78	8.03453
16	4.26759
16.22	9.40784
16.44	9.44143
16.66	3.4764
16.88	1.68014
17.1	13.658
17.32	14.6568
17.54	16.2889
17.76	12.7895
17.98	9.6107
18.2	33.7435
18.42	11.6421
18.64	26.4278
18.86	13.4083
19.08	7.21134
19.3	7.99495
19.52	7.26689
19.74	33.251
19.96	9.23165
20.18	0.636676
20.4	8.81084
20.62	6.50274
20.84	5.50658
21.06	8.23213
21.28	3.1858
21.5	1.85522
21.72	10.0738
21.94	1.65773
22.16	2.2772
22.38	18.593
22.6	5.20615
22.82	9.81805
23.04	75.2131
23.26	11.2209
23.48	3.75258
23.7	0.760177
23.92	8.794
24.14	9.62072
24.36	1.57302
24.58	14.5534
24.8	2.49171
25.02	8.25336
25.24	15.9581
25.46	6.90762
25.68	9.61693
25.9	15.0388
26.12	10.6224
26.34	60.2052
26.56	21.0963
26.78	10.8524
27	6.95522
27.22	84.7408
27.44	19.703
27.66	1.2257
27.88	8.98225
28.1	7.50948
28.32	12.4493
28.54	178.486
28.76	11.2559
28.98	7.34502
29.2	10.2147
29.42	9.95371
29.64	11.1445
29.86	1.48498
30.08	10.1856
30.3	40.2023
30.52	47.1508
30.74	7.1977
30.96	8.21018
31.18	7.52389
31.4	1.58145
31.62	2.40017
31.84	98.2518
32.06	13.0967
32.28	2.73437
32.5	1.75995
32.72	69.5188
32.94	25.5163
33.16	232.644
33.38	26.7085
33.6	11.895
33.82	3.92951
34.04	5.18235
34.26	4.58163
34.48	14.5296
34.7	75.854
34.92	15.4595
35.14	13.8486
35.36	34.553
35.58	78.8802
35.8	9.05321
36.02	2.47249
36.24	4.70988
36.46	1.36268
36.68	14.4592
36.9	18.5279
37.12	9.54197
37.34	5.58091
37.56	12.1093
37.78	25.1118
38	3.62642
38.22	2.71447
38.44	20.6508
38.66	93.1848
38.88	14.2966
39.1	10.5114
39.32	40.7536
39.54	28.2192
39.76	19.5226
39.98	3.20738
40.2	0.02643
40.42	2.02589
40.64	0.824518
40.86	14.2633
41.08	10.5482
41.3	4.43743
41.52	11.3767
41.74	43.1796
41.96	38.0233
42.18	19.4964
42.4	6.36419
42.62	22.8402
42.84	6.97018
43.06	9.05436
43.28	4.13147
43.5	8.96709
43.72	9.91853
43.94	4.70231
44.16	13.0311
44.38	27.1907
44.6	12.9316
44.82	23.6761
45.04	22.4659
45.26	14.5266
45.48	15.6585
45.7	7.20293
45.92	3.31314
46.14	12.1933
46.36	10.5026
46.58	13.6301
46.8	5.63626
47.02	10.8762
47.24	3.95534
47.46	2.5874
47.68	8.57256
47.9	30.3207
48.12	2.69386
48.34	4.70322
48.56	18.8207
48.78	8.90549
49	28.878
49.22	15.1795
49.44	0.600576
49.66	8.51909
49.88	1.0281
50.1	8.52471
50.32	8.34482
50.54	0.048977
50.76	8.59413
50.98	6.37255
51.2	0.472404
51.42	9.64199
51.64	2.81042
51.86	9.18303
52.08	8.40076
52.3	12.3254
52.52	12.0338
52.74	2.77002
52.96	8.3107
53.18	8.73659
53.4	3.10117
53.62	7.71088
53.84	7.30505
54.06	11.0847
54.28	11.3537
54.5	10.7505
54.72	24.3294
54.94	28.8947
55.16	4.39187
55.38	1.36348
55.6	55.5504
55.82	26.6594
56.04	0.384958
56.26	10.6664
56.48	7.86829
56.7	1.9811
56.92	12.2011
57.14	23.7111
57.36	4.01708
57.58	2.94821
57.8	16.9483
58.02	20.7935
58.24	2.63865
58.46	8.69294
58.68	18.9738
58.9	0.383518
59.12	12.4362
59.34	17.4362
59.56	8.42373
59.78	2.15233
60	1.01458
60.22	26.1014
60.44	7.26039
60.66	9.44089
60.88	0.430055
61.1	13.4955
61.32	19.4731
61.54	40.416
61.76	28.4739
61.98	18.1467
62.2	7.68408
62.42	3.46078
62.64	2.30629
62.86	2.32941
63.08	7.10881
63.3	1.78504
63.52	3.2878
63.74	6.57331
63.96	19.5857
64.18	2.90125
64.4	6.93039
64.62	76.4874
64.84	51.0276
65.06	9.23305
65.28	5.826
65.5	6.39436
65.72	0.788571
65.94	9.23815
66.16	0.941171
66.38	7.57445
66.6	17.6715
66.82	8.21483
67.04	6.77286
67.26	8.46213
67.48	11.2258
67.7	10.0659
67.92	11.7241
68.14	1.10583
68.36	1.83501
68.58	35.9786
68.8	16.3308
69.02	9.07043
69.24	17.5809
69.46	15.464
69.68	11.3473
69.9	3.66522
70.12	6.11642
70.34	10.9038
70.56	17.9931
70.78	16.5155
71	9.04495
71.22	11.4113
71.44	7.22998
71.66	11.2325
71.88	14.197
72.1	4.01718
72.32	2.71815
72.54	6.55607
72.76	6.54335
72.98	0.816875
73.2	7.404
73.42	23.3173
73.64	15.2877
73.86	19.3659
74.08	3.4398
74.3	0.614159
74.52	8.39249
74.74	0.011384
74.96	10.728
75.18	3.26735
75.4	4.74607
75.62	0.611245
75.84	5.76966
76.06	1.00313
76.28	0.564216
76.5	6.70841
76.72	10.7796
76.94	10.2368
77.16	1.33575
77.38	18.0133
77.6	2.22668
77.82	1.21481
78.04	9.91694
78.26	5.81258
78.48	12.8846
78.7	1.99291
78.92	1.04502
79.14	2.11055
79.36	4.20847
79.58	0.789096
79.8	1.1984
80.02	11.5572
80.24	30.8663
80.46	6.94216
80.68	7.31481
80.9	3.66097
81.12	10.3608
81.34	4.39192
81.56	2.3499
81.78	2.70785
82	5.88639
82.22	9.90157
82.44	8.88634
82.66	5.17925
82.88	6.26498
83.1	13.9155
83.32	6.52224
83.54	5.73229
83.76	9.2183
83.98	8.55258
84.2	7.86607
84.42	12.9341
84.64	3.78911
84.86	2.91915
85.08	1.19479
85.3	1.79435
85.52	6.7557
85.74	8.70627
85.96	8.39484
86.18	0.973438
86.4	11.2684
86.62	6.09386
86.84	6.12576
87.06	5.2078
87.28	7.16288
87.5	1.64747
87.72	6.58371
87.94	9.80024
88.16	10.042
88.38	13.2389
88.6	2.44786
88.82	2.92823
89.04	7.1011
89.26	14.3045
89.48	4.12754
89.7	0.837866
89.92	4.77761
