Measurement: Powder, Xray Data XY Processed
Mineral: Fluor-liddicoatite
Rruff sample: R060635
Ideal chemistry: Ca(Li_2_Al)Al_6_(Si_6_O_18_)(BO_3_)_3_(OH)_3_F
Locality: unknown
Source: Gemological Institute of America
Description: Rootbeer brown cut gemstone
Diffraction sample description: Powder
Measured chemistry: (Li_1.84_Al_1.05_Mn_0.11_)_Σ=3_(Ca_0.82_Na_0.15_[box]_0.03_)_Σ=1_Al_6.00_(BO_3_)_3_[Si_6.00_O_18_]((OH)_3.16_F_0.84_)_Σ=4_
Cell parameters: a: 15.8428(3) b: 15.8428(3) c: 7.1070(2) alpha: 90 beta: 90 gamma: 120 volume: 1544.84(7) crystal system: hexagonal
x	intensity
5	0
5.22	8.77351
5.44	15.4629
5.66	14.1686
5.88	10.4267
6.1	5.77154
6.32	2.79091
6.54	8.45434
6.76	5.73358
6.98	7.46858
7.2	8.02438
7.42	3.4604
7.64	14.0252
7.86	8.5004
8.08	8.35638
8.3	4.80352
8.52	3.18267
8.74	0.7289
8.96	3.30131
9.18	8.44331
9.4	4.67582
9.62	4.97111
9.84	4.32031
10.06	1.50607
10.28	6.8443
10.5	3.91382
10.72	7.09854
10.94	2.29122
11.16	21.4351
11.38	12.7715
11.6	6.01527
11.82	9.96411
12.04	8.87207
12.26	5.0488
12.48	1.26612
12.7	11.4001
12.92	10.0869
13.14	10.0667
13.36	10.0439
13.58	7.0653
13.8	3.83727
14.02	14.6155
14.24	0.469985
14.46	0.525688
14.68	12.2427
14.9	0.933106
15.12	0.194578
15.34	8.20377
15.56	9.28402
15.78	4.25297
16	0.489173
16.22	11.7009
16.44	5.69097
16.66	2.63399
16.88	7.47358
17.1	5.46732
17.32	0.348193
17.54	8.12226
17.76	0.773216
17.98	183.292
18.2	8.2335
18.42	11.8855
18.64	0.784114
18.86	2.15474
19.08	5.7663
19.3	7.78702
19.52	22.2064
19.74	10.1519
19.96	1.82661
20.18	3.57541
20.4	9.26459
20.62	6.38364
20.84	15.5369
21.06	14.2768
21.28	164.107
21.5	6.04147
21.72	8.76439
21.94	5.59545
22.16	6.74807
22.38	17.904
22.6	11.2785
22.82	8.71613
23.04	1.65908
23.26	0.527146
23.48	5.25934
23.7	1.50021
23.92	10.5865
24.14	2.53215
24.36	7.424
24.58	2.19601
24.8	3.88639
25.02	5.47662
25.24	6.1272
25.46	2.85434
25.68	3.60759
25.9	216.811
26.12	12.8256
26.34	5.84979
26.56	60.9177
26.78	4.07663
27	9.30284
27.22	10.5596
27.44	11.6274
27.66	10.7876
27.88	10.7245
28.1	7.09517
28.32	11.8676
28.54	3.37519
28.76	5.02669
28.98	22.3507
29.2	4.81506
29.42	9.15758
29.64	2.45687
29.86	125.097
30.08	8.42335
30.3	4.77684
30.52	512.222
30.74	16.4214
30.96	2.56476
31.18	19.9495
31.4	0.477222
31.62	6.88285
31.84	11.3456
32.06	13.7499
32.28	4.96059
32.5	4.07755
32.72	6.13305
32.94	6.35224
33.16	2.31551
33.38	6.01079
33.6	6.7815
33.82	3.45082
34.04	6.34071
34.26	13.1808
34.48	3.13492
34.7	7.08717
34.92	3.82223
35.14	143.144
35.36	20.1214
35.58	17.2923
35.8	8.49645
36.02	4.79909
36.24	1.60565
36.46	7.47852
36.68	2.45347
36.9	21.382
37.12	11.2373
37.34	4.45154
37.56	3.03758
37.78	7.00965
38	108.114
38.22	57.1077
38.44	13.0648
38.66	60.0017
38.88	4.12211
39.1	10.2791
39.32	4.57816
39.54	6.72333
39.76	2.29283
39.98	0.491241
40.2	8.35704
40.42	8.12171
40.64	6.12476
40.86	8.81301
41.08	5.23604
41.3	1.02923
41.52	0.320918
41.74	8.51384
41.96	10.2525
42.18	13.5318
42.4	9.22982
42.62	2.57108
42.84	5.69602
43.06	22.7389
43.28	35.8037
43.5	15.9502
43.72	1.00676
43.94	0.071977
44.16	6.15754
44.38	6.97906
44.6	75.3171
44.82	46.6604
45.04	8.50973
45.26	1.54307
45.48	0.265812
45.7	2.98867
45.92	5.43916
46.14	3.73878
46.36	3.95413
46.58	1.00601
46.8	4.44412
47.02	7.62068
47.24	13.5785
47.46	5.68264
47.68	15.9646
47.9	60.1726
48.12	17.1809
48.34	1.24893
48.56	2.3176
48.78	5.4009
49	5.64401
49.22	6.75601
49.44	3.81807
49.66	0.913388
49.88	3.35044
50.1	5.15994
50.32	5.24322
50.54	6.46664
50.76	14.1501
50.98	6.1131
51.2	2.07909
51.42	6.99958
51.64	7.08067
51.86	53.3335
52.08	17.3754
52.3	0.945647
52.52	6.95314
52.74	8.6605
52.96	1.54884
53.18	2.77772
53.4	13.3105
53.62	2.3449
53.84	4.30537
54.06	2.2855
54.28	3.0553
54.5	11.304
54.72	24.2532
54.94	11.1405
55.16	4.23882
55.38	9.20257
55.6	7.92718
55.82	15.7684
56.04	26.7129
56.26	2.97556
56.48	18.8471
56.7	9.60516
56.92	0.616767
57.14	3.3522
57.36	3.33373
57.58	12.1554
57.8	1.18096
58.02	9.45535
58.24	23.4364
58.46	10.6042
58.68	5.53534
58.9	1.66468
59.12	9.85877
59.34	6.97444
59.56	8.24487
59.78	8.43598
60	0.523562
60.22	5.66077
60.44	6.63518
60.66	4.55348
60.88	9.43734
61.1	22.4215
61.32	14.3514
61.54	9.33233
61.76	3.53915
61.98	11.2432
62.2	32.1561
62.42	27.0964
62.64	4.94919
62.86	0.133029
63.08	0.785105
63.3	4.67497
63.52	9.67666
63.74	6.63635
63.96	1.27993
64.18	7.07493
64.4	1.29727
64.62	58.2257
64.84	43.4258
65.06	9.47532
65.28	0.251394
65.5	0.891064
65.72	5.98589
65.94	7.87558
66.16	8.74449
66.38	5.54438
66.6	2.237
66.82	7.19943
67.04	69.2636
67.26	21.1931
67.48	3.35108
67.7	1.66487
67.92	7.53021
68.14	4.62547
68.36	11.2831
68.58	13.7217
68.8	8.79984
69.02	0.978282
69.24	4.05809
69.46	0.315481
69.68	7.27235
69.9	8.39729
70.12	3.62783
70.34	8.90455
70.56	8.69334
70.78	18.248
71	3.01281
71.22	0.996736
71.44	17.7582
71.66	19.547
71.88	19.2501
72.1	0.974584
72.32	5.18974
72.54	15.1821
72.76	17.1153
72.98	5.19272
73.2	9.25811
73.42	0.27084
73.64	5.15226
73.86	6.21573
74.08	0.239715
74.3	3.28245
74.52	1.33125
74.74	2.51365
74.96	8.20673
75.18	7.31859
75.4	5.49715
75.62	3.05944
75.84	5.0099
76.06	1.1612
76.28	5.37332
76.5	4.47258
76.72	8.52086
76.94	3.29213
77.16	3.32915
77.38	1.67839
77.6	6.36198
77.82	3.10253
78.04	8.7689
78.26	3.06201
78.48	13.1932
78.7	2.29443
78.92	4.63423
79.14	7.71602
79.36	9.81261
79.58	1.32824
79.8	21.7735
80.02	17.8393
80.24	7.87787
80.46	5.86951
80.68	3.84361
80.9	4.599
81.12	1.61927
81.34	6.42739
81.56	4.85721
81.78	6.25854
82	9.64859
82.22	12.7637
82.44	9.8663
82.66	5.11769
82.88	3.12327
83.1	8.10698
83.32	10.9854
83.54	5.73971
83.76	1.4249
83.98	7.05269
84.2	1.66082
84.42	9.27709
84.64	3.11853
84.86	2.20161
85.08	3.96647
85.3	3.9505
85.52	2.89048
85.74	5.03066
85.96	4.11111
86.18	11.1837
86.4	0.486182
86.62	4.69463
86.84	4.90997
87.06	14.7511
87.28	1.83626
87.5	6.03949
87.72	1.8809
87.94	6.1562
88.16	4.1114
88.38	4.30936
88.6	8.39833
88.82	4.29547
89.04	4.89712
89.26	6.03804
89.48	5.95488
89.7	3.06404
89.92	6.0035
