Measurement: Powder, Xray Data XY Processed
Mineral: Fluor-buergerite
Rruff sample: R060132
Ideal chemistry: NaFe^3+^_3_Al_6_(Si_6_O_18_)(BO_3_)_3_O_3_F
Locality: 20 km. south of San Luis Potasi, Mexico
Source: University of Arizona Mineral Museum
Description: Brown short prismatic
Diffraction sample description: Powder
Measured chemistry: (Na_0.87_Ca_0.03_[box]_0.10_)(Fe^3+^_0.82_Al_0.12_Mg_0.04_Ti_0.02_)_3_Al_6_(BO_3_)_3_(Si_0.98_Al_0.02_)_6_O_18_(O_0.66_F_0.19_(OH)_0.15_)_4_
Cell parameters: a: 15.8737(4) b: 15.8737(4) c: 7.1988(6) alpha: 90 beta: 90 gamma: 120 volume: 1570.9(0) crystal system: hexagonal
x	intensity
5	0
5.22	24.544
5.44	16.454
5.66	4.728
5.88	13.345
6.1	7.317
6.32	6.801
6.54	9.208
6.76	7.828
6.98	10.166
7.2	1.852
7.42	22.314
7.64	11.284
7.86	13.143
8.08	5.191
8.3	9.932
8.52	5.392
8.74	3.633
8.96	1.086
9.18	2.667
9.4	6.263
9.62	7.686
9.84	17.945
10.06	0.168
10.28	9.936
10.5	13.437
10.72	3.37
10.94	10.815
11.16	13.447
11.38	5.274
11.6	7.003
11.82	11.139
12.04	7.053
12.26	1.566
12.48	26.607
12.7	20.784
12.92	32.518
13.14	1.044
13.36	7.57
13.58	17.93
13.8	17.004
14.02	23.452
14.24	5.517
14.46	12.713
14.68	18.696
14.9	5.791
15.12	5.239
15.34	15.234
15.56	11.253
15.78	30.008
16	22.385
16.22	6.624
16.44	19.346
16.66	9.46
16.88	7.762
17.1	10.543
17.32	8.358
17.54	25.176
17.76	16.322
17.98	22.05
18.2	12.809
18.42	6.311
18.64	5.075
18.86	15.611
19.08	18.658
19.3	19.557
19.52	22.707
19.74	0.105
19.96	15.029
20.18	13.912
20.4	1.946
20.62	15.143
20.84	0.878
21.06	29.86
21.28	8.819
21.5	21.508
21.72	7.582
21.94	1.465
22.16	26.191
22.38	23.339
22.6	27.92
22.82	3.66
23.04	14.316
23.26	3.33
23.48	8.749
23.7	10.724
23.92	10.056
24.14	30.825
24.36	13.524
24.58	11.185
24.8	3.85
25.02	4.558
25.24	14.89
25.46	8.758
25.68	43.862
25.9	15.638
26.12	2.226
26.34	15.033
26.56	13.623
26.78	44.23
27	11.433
27.22	16.626
27.44	16.013
27.66	7.024
27.88	7.628
28.1	3.375
28.32	6.024
28.54	10.963
28.76	10.796
28.98	5.244
29.2	7.7
29.42	15.609
29.64	4.285
29.86	43.555
30.08	11.071
30.3	68.002
30.52	8.103
30.74	17.345
30.96	4.136
31.18	12.666
31.4	17.588
31.62	1.825
31.84	19.838
32.06	6.066
32.28	17.978
32.5	15.599
32.72	15.874
32.94	11.227
33.16	19.187
33.38	17.899
33.6	5.315
33.82	15.333
34.04	6.991
34.26	14.535
34.48	24.71
34.7	7.083
34.92	58.169
35.14	14.784
35.36	24.952
35.58	35.283
35.8	12.37
36.02	32.316
36.24	17.89
36.46	20.987
36.68	1.234
36.9	29.108
37.12	24.721
37.34	6.838
37.56	0.543
37.78	13.57
38	40.854
38.22	0.779
38.44	9.708
38.66	19.424
38.88	2.325
39.1	1.251
39.32	12.478
39.54	14.112
39.76	10.291
39.98	1.361
40.2	1.38
40.42	15.337
40.64	17.948
40.86	16.038
41.08	5.878
41.3	14.258
41.52	20.217
41.74	3.13
41.96	27.196
42.18	0.957
42.4	17.148
42.62	37.005
42.84	12.707
43.06	2.761
43.28	12.421
43.5	7.039
43.72	4.716
43.94	1.853
44.16	13.847
44.38	7.841
44.6	15.544
44.82	0.578
45.04	30.634
45.26	6.623
45.48	19.406
45.7	21.422
45.92	21.725
46.14	23.737
46.36	12.79
46.58	7.605
46.8	18.807
47.02	11.669
47.24	12.575
47.46	34.736
47.68	35.567
47.9	8.007
48.12	12.228
48.34	13.6
48.56	19.8
48.78	23.008
49	7.099
49.22	4.855
49.44	9.763
49.66	8.289
49.88	0.126
50.1	27.825
50.32	20.501
50.54	5.179
50.76	21.344
50.98	11.145
51.2	14.96
51.42	16.911
51.64	16.005
51.86	13.638
52.08	4.473
52.3	2.466
52.52	16.279
52.74	22.84
52.96	23.59
53.18	9.916
53.4	24.983
53.62	12.557
53.84	16.914
54.06	1.635
54.28	9.723
54.5	15.912
54.72	10.394
54.94	23.085
55.16	5.048
55.38	9.101
55.6	13.201
55.82	14.843
56.04	27.846
56.26	54.755
56.48	25.129
56.7	17.19
56.92	0.219
57.14	0.482
57.36	4.993
57.58	15.304
57.8	20.306
58.02	22.43
58.24	39.902
58.46	15.116
58.68	20.099
58.9	4.721
59.12	9.721
59.34	0.317
59.56	10.912
59.78	4.316
60	16.345
60.22	16.818
60.44	12.587
60.66	22.295
60.88	23.761
61.1	20.37
61.32	15.053
61.54	26.278
61.76	33.454
61.98	27.282
62.2	5.248
62.42	10.329
62.64	25.448
62.86	16.915
63.08	16.121
63.3	4.344
63.52	13.998
63.74	18.971
63.96	31.948
64.18	16.708
64.4	28.7
64.62	30.548
64.84	0.643
65.06	5.573
65.28	2.191
65.5	29.122
65.72	24.275
65.94	7.462
66.16	25.344
66.38	21.481
66.6	13.584
66.82	6.168
67.04	9.652
67.26	2.467
67.48	13.785
67.7	10.711
67.92	5.551
68.14	6.119
68.36	11.855
68.58	16.255
68.8	5.666
69.02	7.311
69.24	3.87
69.46	10.536
69.68	32.447
69.9	16.295
70.12	5.184
70.34	7.078
70.56	19.338
70.78	12.292
71	8.33
71.22	21.626
71.44	22.6
71.66	22.281
71.88	21.933
72.1	20.974
72.32	18.058
72.54	11.849
72.76	32.302
72.98	29.066
73.2	17.014
73.42	4.149
73.64	5.994
73.86	9.975
74.08	13.313
74.3	21.141
74.52	11.531
74.74	24.782
74.96	3.738
75.18	6.926
75.4	5.434
75.62	13.231
75.84	10.911
76.06	23.025
76.28	9.352
76.5	11.468
76.72	0.529
76.94	12.951
77.16	4.458
77.38	7.731
77.6	16.406
77.82	13.949
78.04	6.117
78.26	30.522
78.48	6.312
78.7	7.876
78.92	6.861
79.14	30.769
79.36	25.832
79.58	1.239
79.8	19.562
80.02	13.108
80.24	32.482
80.46	1.848
80.68	12.292
80.9	20.501
81.12	0.905
81.34	22.819
81.56	10.901
81.78	23.506
82	15.26
82.22	31.768
82.44	8.246
82.66	16.239
82.88	0.417
83.1	8.475
83.32	23.989
83.54	5.58
83.76	14.728
83.98	8.401
84.2	12.328
84.42	15.409
84.64	9.672
84.86	12.028
85.08	10.014
85.3	9.164
85.52	3.914
85.74	0.32
85.96	3.411
86.18	11.788
86.4	5.371
86.62	14.169
86.84	23.229
87.06	23.266
87.28	1.826
87.5	1.135
87.72	25.441
87.94	17.756
88.16	21.026
88.38	13.599
88.6	18.316
88.82	24.354
89.04	20.493
89.26	19.702
89.48	17.411
89.7	11.389
89.92	21.158
