Measurement: Powder, Xray Data XY Processed
Mineral: Fluorite
Rruff sample: R040099
Ideal chemistry: CaF_2_
Locality: Rock Candy mine, Grand Forks, British Columbia, Canada
Source: Bob Downs
Description: Pale purple fragment
Diffraction sample description: Powder
Measured chemistry: Ca_0.99_F_2.00_
Cell parameters: a: 5.46393(7) b: 5.46393(7) c: 5.46393(7) alpha: 90. beta: 90. gamma: 90. volume: 163.123(6) crystal system: cubic
x	intensity
5	0
5.22	7.471
5.44	19.882
5.66	4.694
5.88	9.807
6.1	28.251
6.32	19.947
6.54	21.233
6.76	16.621
6.98	10.041
7.2	9.755
7.42	1.547
7.64	3.116
7.86	7.505
8.08	5.841
8.3	3.015
8.52	5.948
8.74	6.604
8.96	6.321
9.18	4.849
9.4	4.559
9.62	0.92
9.84	6.294
10.06	11.238
10.28	6.091
10.5	9.044
10.72	3.065
10.94	13.196
11.16	1.585
11.38	3.834
11.6	10.136
11.82	9.517
12.04	4.093
12.26	9.477
12.48	2.341
12.7	7.873
12.92	4.072
13.14	5.158
13.36	3.404
13.58	7.7
13.8	2.667
14.02	8.845
14.24	5.936
14.46	5.786
14.68	6.709
14.9	4.782
15.12	0.868
15.34	3.859
15.56	5.141
15.78	6.314
16	2.395
16.22	2.448
16.44	5.629
16.66	0.739
16.88	3.789
17.1	7.911
17.32	2.949
17.54	5.056
17.76	8.078
17.98	6.585
18.2	5.552
18.42	0.451
18.64	10.616
18.86	2.496
19.08	7.521
19.3	0.556
19.52	0.407
19.74	0.407
19.96	4.682
20.18	6.79
20.4	1.863
20.62	2.06
20.84	5.052
21.06	2.241
21.28	4.456
21.5	1.567
21.72	1.663
21.94	12.627
22.16	2.734
22.38	4.785
22.6	3.908
22.82	0.926
23.04	3.008
23.26	0.269
23.48	6.301
23.7	1.233
23.92	1.3
24.14	4.439
24.36	7.463
24.58	2.449
24.8	4.485
25.02	6.512
25.24	3.562
25.46	6.334
25.68	5.097
25.9	2.898
26.12	3.736
26.34	0.276
26.56	0.67
26.78	0.831
27	3.492
27.22	1.075
27.44	11.293
27.66	9.672
27.88	21.525
28.1	63.036
28.32	1763
28.54	77.048
28.76	21.371
28.98	4.807
29.2	2.467
29.42	3.866
29.64	2.328
29.86	0.795
30.08	1.668
30.3	2.656
30.52	4.988
30.74	1.277
30.96	4.319
31.18	8.338
31.4	7.326
31.62	0.923
31.84	2.235
32.06	10.275
32.28	3.412
32.5	6.223
32.72	7.298
32.94	1.404
33.16	1.409
33.38	3.574
33.6	1.667
33.82	4.78
34.04	4.886
34.26	5.143
34.48	0.884
34.7	12.212
34.92	3.272
35.14	6.317
35.36	3.372
35.58	1.315
35.8	3.246
36.02	3.291
36.24	2.243
36.46	4.24
36.68	0.156
36.9	3.172
37.12	5.251
37.34	4.344
37.56	0.61
37.78	0.646
38	3.521
38.22	4.626
38.44	3.627
38.66	0.684
38.88	3.756
39.1	2.72
39.32	3.787
39.54	1.676
39.76	4.588
39.98	4.543
40.2	6.505
40.42	1.431
40.64	4.381
40.86	1.293
41.08	0.248
41.3	4.125
41.52	1.047
41.74	0.005
41.96	2.131
42.18	5.245
42.4	4.324
42.62	1.45
42.84	0.453
43.06	5.408
43.28	7.512
43.5	2.537
43.72	3.443
43.94	5.918
44.16	2.924
44.38	1.523
44.6	1.008
44.82	1.379
45.04	3.72
45.26	1.039
45.48	4.109
45.7	10.198
45.92	0.596
46.14	1.66
46.36	16.502
46.58	10.783
46.8	58.588
47.02	843.811
47.24	183.189
47.46	30.674
47.68	14.201
47.9	10.839
48.12	1.51
48.34	3.29
48.56	0.979
48.78	3.633
49	2.139
49.22	5.625
49.44	5.71
49.66	6.792
49.88	7.869
50.1	8.056
50.32	2.331
50.54	5.45
50.76	2.457
50.98	6.533
51.2	3.627
51.42	1.115
51.64	3.929
51.86	6.15
52.08	3.13
52.3	6.194
52.52	4.281
52.74	3.216
52.96	5.302
53.18	1.41
53.4	1.355
53.62	0.722
53.84	1.073
54.06	4.909
54.28	10.556
54.5	1.235
54.72	3.958
54.94	2.585
55.16	8.295
55.38	8.061
55.6	25.823
55.82	292.753
56.04	38.903
56.26	12.21
56.48	4.462
56.7	0.188
56.92	3.143
57.14	0.492
57.36	5.788
57.58	2.051
57.8	0.612
58.02	9.681
58.24	1.861
58.46	4.732
58.68	3.706
58.9	1.8
59.12	2.778
59.34	2.854
59.56	2.855
59.78	1.893
60	0.052
60.22	1.038
60.44	1.974
60.66	3.001
60.88	6.013
61.1	2.064
61.32	1.063
61.54	4.128
61.76	4.172
61.98	3.247
62.2	4.294
62.42	0.287
62.64	0.633
62.86	2.47
63.08	0.519
63.3	1.552
63.52	2.598
63.74	2.614
63.96	5.625
64.18	1.589
64.4	2.584
64.62	0.658
64.84	2.559
65.06	3.491
65.28	0.61
65.5	3.295
65.72	0.731
65.94	1.172
66.16	3.183
66.38	2.068
66.6	2.014
66.82	2.94
67.04	0.715
67.26	1.603
67.48	4.425
67.7	2.312
67.92	0.19
68.14	3.065
68.36	7.137
68.58	24.042
68.8	22.05
69.02	15.176
69.24	2.196
69.46	0.68
69.68	3.483
69.9	1.654
70.12	6.764
70.34	0.132
70.56	2.082
70.78	2.022
71	5.08
71.22	5.113
71.44	4.142
71.66	1.239
71.88	2.302
72.1	4.358
72.32	6.363
72.54	2.386
72.76	2.458
72.98	0.647
73.2	2.341
73.42	1.325
73.64	0.445
73.86	0.445
74.08	2.246
74.3	1.081
74.52	2.865
74.74	1.701
74.96	1.56
75.18	3.354
75.4	3.276
75.62	8.17
75.84	77.225
76.06	40.029
76.28	9.921
76.5	6.069
76.72	3.25
76.94	0.319
77.16	3.391
77.38	3.575
77.6	1.284
77.82	1.811
78.04	5.815
78.26	2.885
78.48	6.928
78.7	1.96
78.92	0.899
79.14	4.873
79.36	1.915
79.58	0.953
79.8	4.001
80.02	1.146
80.24	1.094
80.46	4.198
80.68	2.186
80.9	1.299
81.12	2.439
81.34	1.474
81.56	1.452
81.78	1.548
82	2.675
82.22	2.63
82.44	0.495
82.66	2.475
82.88	2.475
83.1	0.538
83.32	5.449
83.54	2.329
83.76	2.318
83.98	4.462
84.2	4.498
84.42	1.39
84.64	3.299
84.86	3.472
85.08	1.446
85.3	3.283
85.52	5.002
85.74	4.754
85.96	1.485
86.18	3.13
86.4	3.71
86.62	3.279
86.84	4.004
87.06	13.711
87.28	27.49
87.5	41.414
87.72	44.502
87.94	13.725
88.16	2.026
88.38	2.363
88.6	2.791
88.82	7.106
89.04	0.357
89.26	3.12
89.48	1.514
89.7	4.604
89.92	3.829
