Measurement: Powder, Xray Data XY Processed
Mineral: Fluor-uvite
Rruff sample: R050172
Ideal chemistry: CaMg_3_(Al_5_Mg)(Si_6_O_18_)(BO_3_)_3_(OH)_3_F
Locality: Pierrepont, New York, USA
Source: Marcus Origlieri
Description: Black prismatic crystal
Diffraction sample description: Powder
Measured chemistry: (Ca_0.64_Na_0.36_)(Mg_0.56_Fe^2+^_0.34_Al_0.08_Ti_0.02_)_3_(Mg_1.00_Al_5.00_)(BO_3_)_3_Si_6.00_O_18_((OH)_3.45_F_0.55_)
Cell parameters: a: 15.9847(4) b: 15.9847(4) c: 7.2216(3) alpha: 90. beta: 90. gamma: 120. volume: 1598.02(8) crystal system: hexagonal
x	intensity
5	0
5.22	1.469
5.44	0.846
5.66	19.54
5.88	5.778
6.1	17.391
6.32	7.589
6.54	1.665
6.76	19.675
6.98	1.103
7.2	20.503
7.42	20.963
7.64	17.118
7.86	9.033
8.08	7.841
8.3	22.807
8.52	1.647
8.74	7.771
8.96	10.022
9.18	0.75
9.4	12.41
9.62	9.834
9.84	15.299
10.06	2.754
10.28	13.158
10.5	11.876
10.72	19.48
10.94	5.498
11.16	12.982
11.38	9.969
11.6	1.023
11.82	13.932
12.04	7.334
12.26	21.707
12.48	1.512
12.7	11.551
12.92	9.245
13.14	10.846
13.36	5.734
13.58	17.145
13.8	72.034
14.02	20.017
14.24	6.864
14.46	21.963
14.68	8.869
14.9	0.757
15.12	0.924
15.34	18.497
15.56	2.067
15.78	22.759
16	28.194
16.22	9.472
16.44	2.818
16.66	9.749
16.88	0.382
17.1	15.891
17.32	13.915
17.54	20.94
17.76	197.726
17.98	13.237
18.2	17.246
18.42	8.608
18.64	18.255
18.86	5.243
19.08	13.788
19.3	99.385
19.52	11.38
19.74	4.562
19.96	11.96
20.18	1.913
20.4	22.005
20.62	16.936
20.84	39.456
21.06	127.722
21.28	14.743
21.5	9.439
21.72	19.525
21.94	0.731
22.16	31.909
22.38	53.994
22.6	23.825
22.82	0.239
23.04	17.362
23.26	6.564
23.48	18.273
23.7	0.952
23.92	2.116
24.14	16.323
24.36	4.13
24.58	6.344
24.8	18.667
25.02	10.363
25.24	10.873
25.46	137.353
25.68	26.735
25.9	14.693
26.12	5.913
26.34	56.793
26.56	7.88
26.78	15.16
27	27.322
27.22	14.943
27.44	0.64
27.66	19.653
27.88	4.74
28.1	9.533
28.32	18.437
28.54	6.309
28.76	6.931
28.98	9.551
29.2	12.057
29.42	4.73
29.64	24.5
29.86	29.818
30.08	619.138
30.3	18.63
30.52	6.019
30.74	36.065
30.96	2.14
31.18	2.661
31.4	12.326
31.62	21.595
31.84	12.109
32.06	0.579
32.28	16.66
32.5	14.846
32.72	9.475
32.94	7.019
33.16	5.988
33.38	8.086
33.6	10.693
33.82	6.93
34.04	4.95
34.26	23.608
34.48	16.651
34.7	556.954
34.92	23.61
35.14	8.37
35.36	15.043
35.58	6.619
35.8	14.607
36.02	8.994
36.24	5.244
36.46	8.34
36.68	13.304
36.9	3.346
37.12	9.698
37.34	65.167
37.56	9.126
37.78	33.561
38	10.194
38.22	27.231
38.44	13.19
38.66	8.492
38.88	7.325
39.1	14.851
39.32	12.441
39.54	11.243
39.76	6.761
39.98	3.564
40.2	2.005
40.42	1.777
40.64	10.28
40.86	4.739
41.08	59.65
41.3	21.776
41.52	24.179
41.74	13.432
41.96	18.972
42.18	11.832
42.4	74.361
42.62	15.734
42.84	16.208
43.06	10.981
43.28	2.027
43.5	34.702
43.72	1.717
43.94	71.123
44.16	17.925
44.38	122.075
44.6	13.951
44.82	16.715
45.04	11.192
45.26	20.675
45.48	17.305
45.7	5.972
45.92	2.64
46.14	12.598
46.36	14.482
46.58	12.453
46.8	13.841
47.02	21.342
47.24	67.906
47.46	11.591
47.68	9.619
47.9	4.344
48.12	0.155
48.34	42.139
48.56	9.324
48.78	20.055
49	23.241
49.22	13.993
49.44	7.218
49.66	29.514
49.88	12.841
50.1	12.908
50.32	6.274
50.54	1.614
50.76	5.085
50.98	27.766
51.2	23.784
51.42	7.757
51.64	1.637
51.86	3.509
52.08	3.957
52.3	21.2
52.52	12.496
52.74	6.307
52.96	24.823
53.18	11.037
53.4	4.502
53.62	14.33
53.84	22.209
54.06	12.209
54.28	27.62
54.5	6.96
54.72	19.737
54.94	7.468
55.16	80.757
55.38	20.505
55.6	8.686
55.82	72.71
56.04	4.367
56.26	6.855
56.48	19.739
56.7	18.625
56.92	3.119
57.14	3.968
57.36	4.979
57.58	49.342
57.8	15.014
58.02	18.911
58.24	17.145
58.46	9.581
58.68	5.193
58.9	5.744
59.12	9.02
59.34	2.013
59.56	11.315
59.78	15.985
60	18.514
60.22	23.481
60.44	32.147
60.66	8.878
60.88	9.66
61.1	3.587
61.32	61.987
61.54	30.868
61.76	6.957
61.98	14.326
62.2	5.331
62.42	19.211
62.64	19.3
62.86	10.39
63.08	3.783
63.3	11.646
63.52	11.121
63.74	61.082
63.96	25.87
64.18	8.139
64.4	0.472
64.62	6.065
64.84	14.123
65.06	22.226
65.28	1.385
65.5	11.314
65.72	7.493
65.94	5.806
66.16	84.69
66.38	30.232
66.6	9.158
66.82	12.092
67.04	9.128
67.26	0.213
67.48	10.264
67.7	17.505
67.92	19.788
68.14	30.324
68.36	5.762
68.58	9.882
68.8	12.493
69.02	22.238
69.24	22.083
69.46	10.038
69.68	5.058
69.9	8.172
70.12	17.933
70.34	7.284
70.56	32.493
70.78	25.482
71	6.989
71.22	2.174
71.44	8.606
71.66	20.41
71.88	24.415
72.1	16.636
72.32	17.685
72.54	19.913
72.76	9.514
72.98	23.429
73.2	6.405
73.42	10.59
73.64	4.403
73.86	6.115
74.08	37.088
74.3	28.082
74.52	13.103
74.74	3.959
74.96	23.042
75.18	12.633
75.4	8.167
75.62	8.323
75.84	20.715
76.06	7.137
76.28	9.474
76.5	15.183
76.72	9.168
76.94	16.304
77.16	3.536
77.38	14.703
77.6	15.411
77.82	16.443
78.04	1.926
78.26	6.049
78.48	10.177
78.7	0.866
78.92	13.344
79.14	13.351
79.36	7.726
79.58	19.696
79.8	10.646
80.02	8.87
80.24	9.251
80.46	0.492
80.68	13.704
80.9	10.213
81.12	7.419
81.34	17.888
81.56	13.261
81.78	10.13
82	10.453
82.22	5.204
82.44	4.189
82.66	8.792
82.88	3.529
83.1	5.587
83.32	15.441
83.54	10.507
83.76	2.018
83.98	3.945
84.2	9.91
84.42	4.139
84.64	0.626
84.86	3.751
85.08	3.151
85.3	1.958
85.52	18.283
85.74	6.375
85.96	14.338
86.18	11.212
86.4	9.917
86.62	15.331
86.84	23.072
87.06	11.47
87.28	10.747
87.5	1.426
87.72	9.403
87.94	17.269
88.16	3.836
88.38	14.405
88.6	7.727
88.82	10.911
89.04	33.154
89.26	24.707
89.48	16.568
89.7	10.638
89.92	8.483
