Measurement: Powder, Xray Data XY Processed
Mineral: Fluorite
Rruff sample: R050046
Ideal chemistry: CaF_2_
Locality: Shangbao, Lei Yang, Hunan Province, China
Source: Eugene Schlepp
Description: Pale purple crystal
Diffraction sample description: Powder
Measured chemistry: Ca_1.000_ F_2.000_
Cell parameters: a: 5.4639(1) b: 5.4639(1) c: 5.4639(1) alpha: 90. beta: 90. gamma: 90. volume: 163.12(1) crystal system: cubic
x	intensity
5	0
5.22	6.098
5.44	1.813
5.66	9.624
5.88	10.762
6.1	26.385
6.32	22.836
6.54	24.263
6.76	12.53
6.98	1.258
7.2	4.145
7.42	3.245
7.64	5.882
7.86	2.386
8.08	0.138
8.3	6.881
8.52	1.49
8.74	5.33
8.96	4.036
9.18	3.544
9.4	4.949
9.62	2.573
9.84	5.328
10.06	7.592
10.28	12.507
10.5	5.586
10.72	13.763
10.94	13.906
11.16	0.119
11.38	2.458
11.6	7.783
11.82	2.553
12.04	4.919
12.26	8.26
12.48	1.541
12.7	0.752
12.92	0.084
13.14	0.187
13.36	4.332
13.58	5.542
13.8	0.321
14.02	3.739
14.24	7.382
14.46	1.412
14.68	5.424
14.9	7.419
15.12	6.314
15.34	3.418
15.56	3.356
15.78	1.493
16	1.509
16.22	1.53
16.44	3.607
16.66	4.672
16.88	0.731
17.1	2.783
17.32	5.897
17.54	2.826
17.76	4.694
17.98	0.865
18.2	0.831
18.42	0.105
18.64	2.985
18.86	6.09
19.08	5.279
19.3	7.397
19.52	3.583
19.74	5.638
19.96	3.881
20.18	5.985
20.4	0.961
20.62	5.026
20.84	2.071
21.06	5.148
21.28	2.069
21.5	6.035
21.72	3.022
21.94	1.035
22.16	1.022
22.38	3.907
22.6	0.081
22.82	6.982
23.04	3.22
23.26	0.77
23.48	3.231
23.7	5.246
23.92	3.123
24.14	1.218
24.36	3.19
24.58	0.047
24.8	2.05
25.02	1.986
25.24	5.947
25.46	8.9
25.68	5.024
25.9	3.237
26.12	2.114
26.34	0.874
26.56	1.511
26.78	2.215
27	1.864
27.22	0.44
27.44	3.033
27.66	2.592
27.88	12.133
28.1	31.69
28.32	1172.27
28.54	64.325
28.76	6.563
28.98	2.771
29.2	0.066
29.42	3.408
29.64	3.246
29.86	2.398
30.08	3.892
30.3	2.179
30.52	0.474
30.74	4.71
30.96	7.65
31.18	0.833
31.4	1.972
31.62	5.06
31.84	2.088
32.06	4.106
32.28	0.973
32.5	2.927
32.72	7.996
32.94	7.055
33.16	0.066
33.38	5.137
33.6	0.224
33.82	0.832
34.04	2.116
34.26	6.221
34.48	3.233
34.7	1.208
34.92	4.26
35.14	5.213
35.36	2.259
35.58	4.373
35.8	2.477
36.02	2.386
36.24	0.487
36.46	2.578
36.68	2.721
36.9	4.737
37.12	4.792
37.34	2.891
37.56	0.887
37.78	0.103
38	0.16
38.22	5.887
38.44	3.002
38.66	2.984
38.88	2.969
39.1	7.887
39.32	5.901
39.54	3.91
39.76	5.842
39.98	1.853
40.2	3.872
40.42	5.079
40.64	2.994
40.86	0.867
41.08	5.831
41.3	3.775
41.52	1.639
41.74	6.584
41.96	3.571
42.18	1.538
42.4	6.487
42.62	1.506
42.84	4.286
43.06	2.494
43.28	2.618
43.5	2.597
43.72	1.585
43.94	3.522
44.16	3.684
44.38	0.459
44.6	2.108
44.82	0.178
45.04	0.731
45.26	6.778
45.48	2.064
45.7	0.389
45.92	1.848
46.14	3.328
46.36	3.817
46.58	12.214
46.8	31.169
47.02	339.292
47.24	207.236
47.46	43.475
47.68	9.104
47.9	5.501
48.12	6.078
48.34	1.563
48.56	6.079
48.78	1.696
49	0.047
49.22	8.308
49.44	4.518
49.66	7.827
49.88	7.018
50.1	8.899
50.32	3.021
50.54	3.035
50.76	2.151
50.98	0.269
51.2	0.226
51.42	5.428
51.64	2.546
51.86	3.582
52.08	3.678
52.3	11.732
52.52	0.014
52.74	2.003
52.96	2.039
53.18	3.004
53.4	2.858
53.62	1.737
53.84	0.639
54.06	4.464
54.28	1.252
54.5	8.96
54.72	0.607
54.94	0.782
55.16	0.028
55.38	2.867
55.6	16.783
55.82	268.863
56.04	40.966
56.26	7.059
56.48	8.303
56.7	3.557
56.92	1.807
57.14	1.057
57.36	2.293
57.58	1.503
57.8	1.795
58.02	1.862
58.24	2.967
58.46	4.081
58.68	8.089
58.9	5.999
59.12	1.065
59.34	5.113
59.56	0.194
59.78	1.256
60	0.281
60.22	2.181
60.44	4.253
60.66	1.268
60.88	1.258
61.1	4.347
61.32	0.409
61.54	4.478
61.76	0.48
61.98	0.514
62.2	1.533
62.42	5.615
62.64	6.671
62.86	3.702
63.08	5.704
63.3	0.725
63.52	0.724
63.74	1.749
63.96	3.721
64.18	0.641
64.4	4.635
64.62	2.609
64.84	2.602
65.06	2.591
65.28	0.597
65.5	1.594
65.72	0.557
65.94	0.597
66.16	3.497
66.38	2.438
66.6	1.399
66.82	0.384
67.04	2.382
67.26	4.36
67.48	1.225
67.7	2.132
67.92	2.039
68.14	4.916
68.36	3.792
68.58	13.766
68.8	25.814
69.02	8.867
69.24	0.873
69.46	1.916
69.68	0.91
69.9	0.019
70.12	1.174
70.34	1.254
70.56	4.345
70.78	0.486
71	2.589
71.22	1.639
71.44	1.685
71.66	1.651
71.88	2.708
72.1	3.814
72.32	1.839
72.54	2.693
72.76	1.652
72.98	1.559
73.2	3.513
73.42	3.393
73.64	3.396
73.86	2.296
74.08	2.295
74.3	5.18
74.52	2.964
74.74	0.176
74.96	0.284
75.18	2.616
75.4	2.517
75.62	4.477
75.84	39.441
76.06	23.361
76.28	3.388
76.5	4.305
76.72	3.457
76.94	1.502
77.16	3.573
77.38	1.649
77.6	1.794
77.82	3.878
78.04	0.855
78.26	6.959
78.48	2.057
78.7	3.095
78.92	3.074
79.14	3.072
79.36	1.166
79.58	5.195
79.8	0.729
80.02	0.276
80.24	3.381
80.46	1.396
80.68	4.364
80.9	0.403
81.12	4.401
81.34	0.403
81.56	9.434
81.78	4.435
82	2.509
82.22	2.466
82.44	1.507
82.66	4.506
82.88	3.54
83.1	0.548
83.32	1.483
83.54	1.523
83.76	3.58
83.98	0.422
84.2	4.625
84.42	1.582
84.64	2.51
84.86	2.407
85.08	0.378
85.3	2.215
85.52	4.168
85.74	1.115
85.96	5.85
86.18	0.473
86.4	1.289
86.62	2.008
86.84	1.792
87.06	6.641
87.28	26.622
87.5	47.517
87.72	106.545
87.94	9.649
88.16	1.685
88.38	5.94
88.6	2.161
88.82	3.372
89.04	1.703
89.26	3.963
89.48	0.357
89.7	1.356
89.92	1.059
