Measurement: Powder, Xray Data XY Processed
Mineral: Fluorophlogopite
Rruff sample: R040042
Ideal chemistry: KMg_3_(Si_3_Al)O_10_F_2_
Locality: Franklin, Sussex County, New Jersey, USA
Source: University of Arizona Mineral Museum
Description: Brown flattened hexagonal prism, polytype 1M
Diffraction sample description: Powder
Measured chemistry: (K_0.92_Na_0.08_)_Σ=1_(Mg_2.95_Fe_0.05_)_Σ=3_(Si_3.00_Al_1.00_)O_10_(F_1.40_(OH)_0.60_)_Σ=2_; trace amounts of Ti; OH estimated by charge balance
Cell parameters: a: 5.3110(5) b: 9.193(2) c: 10.1503(4) alpha: 90 beta: 100.07(1) gamma: 90 volume: 487.9(1) crystal system: monoclinic
x	intensity
5	0
5.22	8.318
5.44	23.193
5.66	20.456
5.88	24.989
6.1	26.402
6.32	13.988
6.54	9.565
6.76	19.247
6.98	4.604
7.2	5.835
7.42	3.974
7.64	12.061
7.86	8.399
8.08	34.275
8.3	36.39
8.52	50.28
8.74	401.525
8.96	666.494
9.18	45.995
9.4	28.708
9.62	10.454
9.84	0.772
10.06	9.429
10.28	14.59
10.5	9.481
10.72	7.362
10.94	6.207
11.16	5.992
11.38	5.098
11.6	13.632
11.82	11.295
12.04	5.056
12.26	9.051
12.48	3.888
12.7	11.124
12.92	14.672
13.14	15.24
13.36	3.404
13.58	10.621
13.8	6.112
14.02	5.299
14.24	0.549
14.46	12.434
14.68	10.268
14.9	12.227
15.12	2.069
15.34	9.073
15.56	4.571
15.78	4.336
16	7.226
16.22	3.753
16.44	12.607
16.66	6.29
16.88	6.121
17.1	0.955
17.32	2.916
17.54	3.701
17.76	98.419
17.98	11.423
18.2	3.197
18.42	11.083
18.64	1.967
18.86	8.891
19.08	6.826
19.3	24.765
19.52	23.152
19.74	13.348
19.96	11.992
20.18	8.028
20.4	2.969
20.62	1.615
20.84	0.007
21.06	2.6
21.28	6.511
21.5	6.662
21.72	11.772
21.94	6.359
22.16	6.567
22.38	1.65
22.6	10.88
22.82	21.592
23.04	4.001
23.26	9.483
23.48	4.907
23.7	2.551
23.92	3.493
24.14	47.234
24.36	55.053
24.58	23.93
24.8	12.851
25.02	1.737
25.24	18.125
25.46	5.164
25.68	7.378
25.9	24.949
26.12	13.555
26.34	127.196
26.56	95.341
26.78	2375.13
27	103.72
27.22	18.111
27.44	10.009
27.66	23.081
27.88	3.313
28.1	9.251
28.32	38.079
28.54	152.961
28.76	32.242
28.98	13.285
29.2	0.881
29.42	6.395
29.64	4.981
29.86	11.642
30.08	8.378
30.3	23.181
30.52	8.943
30.74	115.93
30.96	68.599
31.18	10.792
31.4	9.299
31.62	1.67
31.84	1.128
32.06	0.225
32.28	12.265
32.5	3.123
32.72	16.151
32.94	16.394
33.16	37.61
33.38	50.032
33.6	7.23
33.82	11.621
34.04	26.985
34.26	65.729
34.48	27.633
34.7	1.712
34.92	3.133
35.14	9.754
35.36	5.22
35.58	25.446
35.8	47.688
36.02	107.71
36.24	18.397
36.46	12.061
36.68	7.107
36.9	23.825
37.12	50.369
37.34	21.04
37.56	1.788
37.78	9.033
38	0.64
38.22	3.969
38.44	18.276
38.66	6.428
38.88	0.034
39.1	11.295
39.32	20.158
39.54	16.084
39.76	7.527
39.98	12.385
40.2	13.284
40.42	11.79
40.64	7.473
40.86	0.833
41.08	4.107
41.3	6.197
41.52	13.271
41.74	72.939
41.96	42.767
42.18	3.179
42.4	8.683
42.62	2.62
42.84	1.388
43.06	1.891
43.28	7.275
43.5	7.145
43.72	7.22
43.94	1.966
44.16	3.964
44.38	5.793
44.6	0.622
44.82	11.939
45.04	13.062
45.26	90.038
45.48	357.95
45.7	45.854
45.92	12.085
46.14	12.233
46.36	5.621
46.58	9.285
46.8	0.389
47.02	4.957
47.24	1.567
47.46	15.038
47.68	1.039
47.9	15.022
48.12	12.251
48.34	5.582
48.56	11.959
48.78	7.191
49	7.161
49.22	5.586
49.44	10.156
49.66	7.425
49.88	17.746
50.1	4.342
50.32	10.875
50.54	4.812
50.76	0.985
50.98	6.87
51.2	11.894
51.42	7.878
51.64	5.759
51.86	7.542
52.08	1.117
52.3	13.483
52.52	9.333
52.74	13.023
52.96	0.372
53.18	5.009
53.4	6.616
53.62	5.026
53.84	2.362
54.06	3.611
54.28	2.766
54.5	11.997
54.72	17.606
54.94	37.56
55.16	124.714
55.38	32.456
55.6	14.288
55.82	6.434
56.04	5.842
56.26	4.491
56.48	4.665
56.7	16.002
56.92	17.834
57.14	10.776
57.36	13.595
57.58	3.043
57.8	9.164
58.02	5.802
58.24	11.814
58.46	10.288
58.68	10.748
58.9	16.011
59.12	13.792
59.34	0.586
59.56	3.636
59.78	3.917
60	12.255
60.22	31.948
60.44	70.406
60.66	25.284
60.88	9.803
61.1	10.759
61.32	2.026
61.54	0.952
61.76	7.86
61.98	7.319
62.2	13.827
62.42	13.443
62.64	7.784
62.86	2.807
63.08	8.55
63.3	18.832
63.52	12.858
63.74	15.166
63.96	3.657
64.18	8.328
64.4	2.384
64.62	5.39
64.84	5.247
65.06	7.263
65.28	30.139
65.5	25.057
65.72	8.807
65.94	7.079
66.16	4.137
66.38	5.614
66.6	0.183
66.82	3.041
67.04	10.03
67.26	11.378
67.48	5.153
67.7	2.882
67.92	0.564
68.14	14.263
68.36	1.962
68.58	0.357
68.8	29.864
69.02	27.765
69.24	65.721
69.46	45.979
69.68	25.7
69.9	8.846
70.12	0.066
70.34	3.996
70.56	1.307
70.78	4.421
71	19.706
71.22	9.741
71.44	15.442
71.66	1.234
71.88	0.07
72.1	10.797
72.32	16.218
72.54	31.996
72.76	16.418
72.98	10.434
73.2	10.857
73.42	1.517
73.64	4.115
73.86	15.805
74.08	6.333
74.3	8.775
74.52	5.91
74.74	2.514
74.96	12.231
75.18	5.084
75.4	13.988
75.62	13.819
75.84	7.82
76.06	11.674
76.28	34.156
76.5	15.2
76.72	2.46
76.94	9.53
77.16	0.483
77.38	2.626
77.6	3.647
77.82	1.632
78.04	2.421
78.26	8.231
78.48	2.234
78.7	13.161
78.92	17.902
79.14	10.113
79.36	9.903
79.58	1.248
79.8	3.591
80.02	3.125
80.24	5.717
80.46	10.24
80.68	14.362
80.9	11.56
81.12	11.68
81.34	13.008
81.56	6.94
81.78	2.348
82	1.42
82.22	7.337
82.44	4.277
82.66	11.114
82.88	2.212
83.1	4.683
83.32	4.981
83.54	6.105
83.76	9.017
83.98	12.179
84.2	5.343
84.42	8.145
84.64	0.175
84.86	1.36
85.08	14.342
85.3	8.023
85.52	3.483
85.74	12.277
85.96	5.145
86.18	5.377
86.4	7.472
86.62	0.673
86.84	1.456
87.06	0.628
87.28	1.163
87.5	12.019
87.72	10.224
87.94	12.409
88.16	7.882
88.38	6.075
88.6	7.027
88.82	0.923
89.04	19.234
89.26	3.583
89.48	9.101
89.7	10.514
89.92	11.506
