Measurement: Powder, Xray Data XY Processed
Mineral: Fluorapatite
Rruff sample: R060070
Ideal chemistry: Ca_5_(PO_4_)_3_F
Locality: Panasqueira, Portugal
Source: Dave Bunk
Description: Green hexagonal tablet
Diffraction sample description: Powder
Measured chemistry: (Ca_0.99_Mn_0.01_)_5_(P_1.00_O_4_)_3_F_1.00_
Cell parameters: a: 9.3701(2) b: 9.3701(2) c: 6.8799(2) alpha: 90 beta: 90 gamma: 120 volume: 523.12(2) crystal system: hexagonal
x	intensity
5	0
5.22	11.216
5.44	4.423
5.66	6.483
5.88	3.486
6.1	3.221
6.32	1.187
6.54	0.578
6.76	12.073
6.98	10.294
7.2	17.045
7.42	14.796
7.64	7.595
7.86	2.323
8.08	5.09
8.3	0.291
8.52	3.154
8.74	9.581
8.96	0.123
9.18	15.772
9.4	7.702
9.62	15.663
9.84	3.349
10.06	2.396
10.28	8.343
10.5	4.384
10.72	2.4
10.94	48.812
11.16	6.875
11.38	4.143
11.6	3.602
11.82	3.784
12.04	0.803
12.26	7.448
12.48	1.686
12.7	2.909
12.92	4.008
13.14	10.138
13.36	6.997
13.58	2.261
13.8	6.027
14.02	5.921
14.24	7.95
14.46	2.873
14.68	2.887
14.9	5.055
15.12	6.09
15.34	7.223
15.56	2.25
15.78	3.271
16	0.854
16.22	6.203
16.44	7.238
16.66	6.386
16.88	11.352
17.1	0.447
17.32	1.283
17.54	0.358
17.76	3.459
17.98	3.507
18.2	4.728
18.42	3.851
18.64	2.881
18.86	6.884
19.08	4.836
19.3	4.901
19.52	2.944
19.74	6.084
19.96	5.118
20.18	3.023
20.4	2.073
20.62	3.892
20.84	2.73
21.06	0.663
21.28	2.615
21.5	0.613
21.72	1.505
21.94	23.435
22.16	0.449
22.38	9.333
22.6	3.313
22.82	4.354
23.04	24.394
23.26	4.505
23.48	1.633
23.7	1.653
23.92	6.638
24.14	4.847
24.36	2.882
24.58	1.668
24.8	7.624
25.02	3.553
25.24	1.433
25.46	6.362
25.68	10.268
25.9	85.192
26.12	10.258
26.34	0.853
26.56	2.873
26.78	2.052
27	3.026
27.22	7.063
27.44	3.039
27.66	3.038
27.88	6.039
28.1	5.971
28.32	12.857
28.54	2.871
28.76	0.1
28.98	7.039
29.2	25.113
29.42	2.379
29.64	3.46
29.86	10.555
30.08	6.425
30.3	2.483
30.52	3.29
30.74	6.989
30.96	9.577
31.18	1.245
31.4	4.803
31.62	6.408
31.84	23.015
32.06	233.589
32.28	96.281
32.5	9.301
32.72	0.546
32.94	5.497
33.16	183.594
33.38	5.774
33.6	9.13
33.82	6.63
34.04	8.711
34.26	55.828
34.48	0.239
34.7	1.465
34.92	3.694
35.14	3.624
35.36	1.937
35.58	4.176
35.8	9.454
36.02	4.58
36.24	2.582
36.46	4.884
36.68	2.958
36.9	5.064
37.12	0.686
37.34	3.225
37.56	5.329
37.78	3.298
38	3.357
38.22	1.687
38.44	1.179
38.66	6.018
38.88	4.791
39.1	0.724
39.32	11.711
39.54	5.646
39.76	1.64
39.98	16.645
40.2	43.727
40.42	10.674
40.64	7.91
40.86	6.01
41.08	3.06
41.3	6.107
41.52	0.146
41.74	4.164
41.96	1.099
42.18	3.099
42.4	8.038
42.62	4.025
42.84	5.935
43.06	1.716
43.28	0.845
43.5	2.832
43.72	2.887
43.94	16.881
44.16	7.805
44.38	2.75
44.6	9.755
44.82	11.761
45.04	4.009
45.26	5.099
45.48	6.977
45.7	4.909
45.92	1.901
46.14	2.2
46.36	5.875
46.58	1.055
46.8	5.142
47.02	32.895
47.24	0.742
47.46	4.38
47.68	0.248
47.9	3.068
48.12	1.04
48.34	47.813
48.56	2.595
48.78	2.468
49	6.214
49.22	0.788
49.44	2.521
49.66	108.545
49.88	11.586
50.1	4.633
50.32	1.124
50.54	0.84
50.76	9.837
50.98	25.033
51.2	3.028
51.42	2.908
51.64	39.734
51.86	11.411
52.08	0.574
52.3	14.45
52.52	24.518
52.74	1.646
52.96	2.811
53.18	8.249
53.4	31.235
53.62	7.435
53.84	1.644
54.06	0.888
54.28	2.072
54.5	4.233
54.72	2.385
54.94	6.506
55.16	2.328
55.38	2.334
55.6	3.06
55.82	3.152
56.04	0.774
56.26	12.16
56.48	2.006
56.7	5.872
56.92	2.811
57.14	1.921
57.36	16.798
57.58	5.814
57.8	0.983
58.02	4.089
58.24	1.13
58.46	3.104
58.68	1.272
58.9	3.374
59.12	1.509
59.34	3.419
59.56	1.381
59.78	0.331
60	2.316
60.22	1.353
60.44	3.264
60.66	6.204
60.88	12.147
61.1	7.022
61.32	1.02
61.54	2.989
61.76	6.277
61.98	13.199
62.2	4.117
62.42	5.964
62.64	1.219
62.86	0.383
63.08	2.491
63.3	8.372
63.52	28.198
63.74	3.342
63.96	8.282
64.18	21.079
64.4	10.123
64.62	12.197
64.84	0.408
65.06	3.465
65.28	5.615
65.5	13.98
65.72	2.136
65.94	2.301
66.16	0.265
66.38	2.211
66.6	3.417
66.82	7.664
67.04	0.846
67.26	0.116
67.48	0.114
67.7	2.133
67.92	0.967
68.14	0.032
68.36	1.996
68.58	1.987
68.8	0.899
69.02	3.749
69.24	0.583
69.46	5.464
69.68	2.299
69.9	1.33
70.12	2.407
70.34	6.332
70.56	5.277
70.78	6.353
71	3.269
71.22	0.266
71.44	4.296
71.66	2.301
71.88	5.272
72.1	19.233
72.32	10.294
72.54	0.214
72.76	16.328
72.98	2.492
73.2	2.419
73.42	2.423
73.64	1.403
73.86	3.421
74.08	3.394
74.3	7.545
74.52	3.35
74.74	7.124
74.96	1.117
75.18	6.963
75.4	4.831
75.62	4.742
75.84	5.638
76.06	2.566
76.28	1.365
76.5	3.155
76.72	1.128
76.94	7.279
77.16	7.421
77.38	6.363
77.6	23.352
77.82	16.388
78.04	2.529
78.26	3.828
78.48	6.991
78.7	18.272
78.92	9.576
79.14	2.665
79.36	0.652
79.58	2.68
79.8	4.796
80.02	2.81
80.24	1.829
80.46	2.759
80.68	1.583
80.9	2.52
81.12	1.434
81.34	2.265
81.56	3.253
81.78	3.181
82	0.023
82.22	5.025
82.44	0.913
82.66	0.241
82.88	2.643
83.1	3.511
83.32	0.418
83.54	1.31
83.76	6.23
83.98	3.132
84.2	6.564
84.42	4.706
84.64	12.711
84.86	1.867
85.08	2.069
85.3	1.744
85.52	1.386
85.74	1.737
85.96	12.962
86.18	3.136
86.4	6.093
86.62	3.725
86.84	3.624
87.06	1.522
87.28	1.417
87.5	10.338
87.72	5.358
87.94	12.226
88.16	6.958
88.38	4.781
88.6	3.669
88.82	3.725
89.04	18.754
89.26	1.914
89.48	7.782
89.7	5.071
89.92	4.964
