Measurement: Powder, Xray Data XY Processed
Mineral: Fluorophlogopite
Rruff sample: R040039
Ideal chemistry: KMg_3_(Si_3_Al)O_10_F_2_
Locality: Franklin, Sussex County, New Jersey, USA
Source: University of Arizona Mineral Museum
Description: Brown hexagonal sheets
Diffraction sample description: Powder
Measured chemistry: (K_0.92_Na_0.06_[box]_0.02_)_Σ=1_(Mg_2.94_Fe_0.04_Ti_0.02_)_Σ=3_(Si_2.98_Al_1.02_)O_10_(F_1.24_(OH)_0.76_)_Σ=2_; OH estimated by charge balance
Cell parameters: a: 5.314(1) b: 9.1865(9) c: 10.153(1) alpha: 90 beta: 100.09(2) gamma: 90 volume: 488.0(0) crystal system: monoclinic
x	intensity
5	0
5.22	26.185
5.44	23.004
5.66	30.293
5.88	48.348
6.1	37.802
6.32	20.926
6.54	9.163
6.76	4.032
6.98	9.076
7.2	4.842
7.42	0.298
7.64	13.54
7.86	2.278
8.08	51.444
8.3	21.02
8.52	8.784
8.74	127.767
8.96	4509.95
9.18	89.176
9.4	26.081
9.62	9.725
9.84	4.128
10.06	15.745
10.28	1.194
10.5	6.903
10.72	6.388
10.94	14.288
11.16	4.25
11.38	9.671
11.6	10.043
11.82	5.177
12.04	9.523
12.26	4.479
12.48	12.24
12.7	11.415
12.92	6.265
13.14	10.646
13.36	10.417
13.58	4.262
13.8	8.464
14.02	12.007
14.24	12.88
14.46	8.084
14.68	17.364
14.9	11.442
15.12	6.859
15.34	5.282
15.56	5.752
15.78	9.089
16	8.353
16.22	2.686
16.44	9.137
16.66	11.005
16.88	5.557
17.1	4.96
17.32	13.387
17.54	7.002
17.76	71.464
17.98	18.923
18.2	3.308
18.42	2.152
18.64	8.335
18.86	10.81
19.08	5.694
19.3	12.001
19.52	15.836
19.74	26.148
19.96	0.626
20.18	9.533
20.4	2.003
20.62	8.998
20.84	4.8
21.06	10.27
21.28	14.018
21.5	10.49
21.72	10.581
21.94	10.183
22.16	9.072
22.38	11.461
22.6	7.622
22.82	26.528
23.04	9.034
23.26	3.764
23.48	16.773
23.7	20.625
23.92	15.518
24.14	38.729
24.36	26.292
24.58	39.184
24.8	10.159
25.02	11.073
25.24	5.863
25.46	15.503
25.68	15.909
25.9	21.21
26.12	39.313
26.34	71.214
26.56	88.516
26.78	2205.42
27	358.865
27.22	26.753
27.44	13.676
27.66	2.926
27.88	0.532
28.1	5.248
28.32	8.625
28.54	89.983
28.76	30.625
28.98	2.059
29.2	19.214
29.42	5.328
29.64	4.297
29.86	1.466
30.08	9.509
30.3	1.018
30.52	17.848
30.74	23.45
30.96	37.095
31.18	11.299
31.4	9.411
31.62	11.229
31.84	5.893
32.06	4.023
32.28	1.043
32.5	13.077
32.72	5.613
32.94	4.781
33.16	22.974
33.38	38.454
33.6	15.199
33.82	10.182
34.04	20.499
34.26	36.009
34.48	81.254
34.7	20.368
34.92	2.761
35.14	1.852
35.36	11.432
35.58	0.455
35.8	21.629
36.02	389.834
36.24	23.407
36.46	4.479
36.68	7.934
36.9	20.763
37.12	78.157
37.34	20.993
37.56	14.602
37.78	18.255
38	1.222
38.22	9.785
38.44	1.175
38.66	4.557
38.88	1.733
39.1	8.715
39.32	10.474
39.54	18.964
39.76	9.535
39.98	4.23
40.2	16.416
40.42	15.678
40.64	5.415
40.86	51.206
41.08	10.973
41.3	11.067
41.52	24.498
41.74	39.753
41.96	16.111
42.18	7.526
42.4	11.112
42.62	1.133
42.84	2.185
43.06	6.382
43.28	3.374
43.5	15.895
43.72	0.493
43.94	1.578
44.16	7.791
44.38	9.531
44.6	13.667
44.82	12.922
45.04	20.257
45.26	63.248
45.48	992.209
45.7	77.782
45.92	15.652
46.14	3.056
46.36	8.881
46.58	3.806
46.8	1.492
47.02	7.037
47.24	5.867
47.46	1.524
47.68	9.697
47.9	7.069
48.12	7.88
48.34	0.223
48.56	4.498
48.78	7.589
49	9.577
49.22	0.212
49.44	7.671
49.66	5.762
49.88	4.297
50.1	12.58
50.32	4.915
50.54	19.367
50.76	9.715
50.98	6.836
51.2	16.222
51.42	10.473
51.64	5.08
51.86	11.96
52.08	9.911
52.3	1.378
52.52	4.502
52.74	5.09
52.96	16.296
53.18	8.869
53.4	5.694
53.62	12.183
53.84	2.545
54.06	3.119
54.28	11.638
54.5	3.173
54.72	14.795
54.94	26.362
55.16	168.231
55.38	52.653
55.6	2.683
55.82	3.902
56.04	12.47
56.26	3.774
56.48	3.291
56.7	2.122
56.92	4.758
57.14	6.319
57.36	5.537
57.58	7.901
57.8	8.279
58.02	1.954
58.24	1.806
58.46	1.495
58.68	9.554
58.9	12.219
59.12	0.534
59.34	6.986
59.56	13.298
59.78	5.898
60	7.5
60.22	20.088
60.44	61.261
60.66	41.46
60.88	16.696
61.1	13.884
61.32	12.299
61.54	4.861
61.76	13.611
61.98	6.94
62.2	3.472
62.42	2.197
62.64	8.707
62.86	5.727
63.08	2.999
63.3	2.223
63.52	8.417
63.74	17.367
63.96	5.188
64.18	7.963
64.4	5.119
64.62	9.086
64.84	2.771
65.06	8.748
65.28	32.207
65.5	35.388
65.72	14.762
65.94	14.62
66.16	11.799
66.38	8.969
66.6	3.19
66.82	5.242
67.04	6.307
67.26	14.358
67.48	6.217
67.7	10.507
67.92	0.971
68.14	0.683
68.36	14.084
68.58	9.675
68.8	11.465
69.02	13.365
69.24	27.829
69.46	20.95
69.68	7.216
69.9	6.265
70.12	5.272
70.34	6.338
70.56	1.461
70.78	4.39
71	0.717
71.22	13.198
71.44	13.963
71.66	0.335
71.88	0.141
72.1	1.897
72.32	14.263
72.54	11.608
72.76	5.912
72.98	8.401
73.2	8.838
73.42	4.463
73.64	2.105
73.86	4.575
74.08	0.187
74.3	7.587
74.52	4.641
74.74	4.406
74.96	5.346
75.18	3.281
75.4	0.94
75.62	4.932
75.84	9.808
76.06	12.517
76.28	27.552
76.5	25.537
76.72	3.042
76.94	7.965
77.16	0.008
77.38	0.082
77.6	10.16
77.82	13.229
78.04	10.052
78.26	15.176
78.48	3.169
78.7	6.454
78.92	5.433
79.14	18.153
79.36	19.393
79.58	14.603
79.8	11.939
80.02	1.205
80.24	0.594
80.46	1.015
80.68	1.153
80.9	0.731
81.12	7.017
81.34	3.9
81.56	11.8
81.78	10.722
82	10.685
82.22	6.596
82.44	1.595
82.66	9.448
82.88	4.704
83.1	2.711
83.32	4.058
83.54	3.479
83.76	4.739
83.98	5.671
84.2	6.771
84.42	12.87
84.64	8.826
84.86	3.98
85.08	4.995
85.3	2.623
85.52	4.555
85.74	9.376
85.96	1.025
86.18	4.317
86.4	14.397
86.62	12.386
86.84	9.341
87.06	7.466
87.28	0.246
87.5	4.324
87.72	3.321
87.94	9.403
88.16	5.36
88.38	3.286
88.6	4.968
88.82	3.231
89.04	1.393
89.26	2.479
89.48	4.678
89.7	5.239
89.92	7.22
