Measurement: Powder, Xray Data XY Processed
Mineral: Foitite
Rruff sample: R050495
Ideal chemistry: [box](Fe^2+^_2_Al)Al_6_(Si_6_O_18_)(BO_3_)_3_(OH)_3_OH
Locality: Coahuila Mountain, California, USA
Source: California Institute of Technology
Description: Bluish black prismatic fragment
Diffraction sample description: Powder
Measured chemistry: ([box]_0.54_Na_0.46_)_Σ=1_(Fe^2+^_1.75_Al_0.85_Mg_0.18_Li_0.14_Mn_0.08_)_Σ=3_Al_6.00_(BO_3_)_3_(Si_5.83_Al_0.17_)_Σ=6_O_18_(OH)_4_ ; B and Li not measured but estimated by charge balance
Cell parameters: a: 15.9542(9) b: 15.9542(9) c: 7.1505(5) alpha: 90. beta: 90. gamma: 120. volume: 1576.2(2) crystal system: hexagonal
x	intensity
5	0
5.22	17.6114
5.44	10.3318
5.66	3.10212
5.88	13.1829
6.1	16.0112
6.32	12.1042
6.54	20.8528
6.76	10.6805
6.98	16.9577
7.2	8.388
7.42	10.8092
7.64	6.13492
7.86	1.03991
8.08	26.7574
8.3	16.9641
8.52	17.5749
8.74	4.0803
8.96	27.1639
9.18	11.3788
9.4	26.3474
9.62	6.7011
9.84	22.7902
10.06	1.42753
10.28	7.19022
10.5	15.9569
10.72	11.0587
10.94	16.7429
11.16	22.3966
11.38	13.0259
11.6	1.15373
11.82	4.87032
12.04	4.55961
12.26	23.0816
12.48	32.6929
12.7	3.54735
12.92	9.1302
13.14	11.7059
13.36	6.58738
13.58	7.73051
13.8	41.8397
14.02	51.4597
14.24	17.9423
14.46	24.0766
14.68	8.42386
14.9	18.6418
15.12	2.95665
15.34	8.07254
15.56	30.0488
15.78	16.1297
16	13.5969
16.22	2.63069
16.44	20.2425
16.66	2.33263
16.88	3.52349
17.1	16.2729
17.32	35.22
17.54	4.11966
17.76	36.299
17.98	2.24004
18.2	11.951
18.42	8.86592
18.64	11.2468
18.86	2.95754
19.08	11.9099
19.3	20.0204
19.52	7.14793
19.74	5.34482
19.96	2.31202
20.18	31.9149
20.4	8.86285
20.62	27.4449
20.84	0.749527
21.06	259.352
21.28	22.4224
21.5	24.2348
21.72	20.2192
21.94	22.2039
22.16	26.6794
22.38	47.2959
22.6	21.5694
22.82	5.14409
23.04	2.27432
23.26	27.5674
23.48	14.4303
23.7	27.5527
23.92	18.6979
24.14	5.28484
24.36	9.25592
24.58	18.1385
24.8	18.335
25.02	14.8841
25.24	19.4943
25.46	16.2421
25.68	169.819
25.9	43.5153
26.12	16.513
26.34	35.865
26.56	30.0743
26.78	0.721603
27	18.0682
27.22	16.5696
27.44	12.0205
27.66	14.1317
27.88	12.4729
28.1	28.2504
28.32	0.825737
28.54	17.6473
28.76	17.3442
28.98	13.9831
29.2	12.2998
29.42	20.019
29.64	31.5601
29.86	15.3879
30.08	24.1504
30.3	220.055
30.52	18.9633
30.74	9.48527
30.96	24.4686
31.18	6.67506
31.4	24.0729
31.62	23.3856
31.84	4.77533
32.06	19.0235
32.28	11.9408
32.5	2.65682
32.72	16.4914
32.94	17.0567
33.16	19.897
33.38	17.4123
33.6	6.81971
33.82	17.82
34.04	2.90601
34.26	26.5455
34.48	0.818542
34.7	83.6872
34.92	71.1244
35.14	25.9151
35.36	19.2893
35.58	20.6498
35.8	12.0676
36.02	14.4405
36.24	16.7991
36.46	14.0432
36.68	11.2284
36.9	21.8918
37.12	15.77
37.34	9.91522
37.56	20.7929
37.78	34.3107
38	34.6949
38.22	12.4421
38.44	21.5825
38.66	1.44727
38.88	8.89671
39.1	13.8317
39.32	6.85202
39.54	0.880302
39.76	14.9946
39.98	21.9193
40.2	11.3476
40.42	16.3822
40.64	5.45472
40.86	8.75363
41.08	1.2792
41.3	54.2001
41.52	17.4947
41.74	23.3068
41.96	27.0326
42.18	13.6637
42.4	18.7112
42.62	37.9869
42.84	55.6188
43.06	9.09693
43.28	10.3888
43.5	3.71893
43.72	5.99454
43.94	7.92579
44.16	27.6977
44.38	186.578
44.6	14.1101
44.82	8.91722
45.04	6.0387
45.26	13.6728
45.48	8.89652
45.7	14.5837
45.92	43.4056
46.14	13.9887
46.36	8.69389
46.58	7.301
46.8	16.0073
47.02	15.6453
47.24	7.36875
47.46	58.9746
47.68	29.0559
47.9	31.822
48.12	13.5594
48.34	15.1669
48.56	8.27212
48.78	41.7289
49	41.6857
49.22	22.8544
49.44	15.1145
49.66	22.4727
49.88	2.30699
50.1	22.8377
50.32	19.6435
50.54	12.2658
50.76	4.57348
50.98	23.8495
51.2	17.5037
51.42	22.6281
51.64	37.3851
51.86	15.2446
52.08	22.1109
52.3	8.41518
52.52	15.1953
52.74	13.191
52.96	27.9084
53.18	36.6293
53.4	7.19675
53.62	9.49271
53.84	0.039223
54.06	13.4325
54.28	29.4207
54.5	40.3921
54.72	4.60122
54.94	4.58459
55.16	35.1664
55.38	40.0899
55.6	56.2484
55.82	9.67451
56.04	17.1817
56.26	3.62918
56.48	17.778
56.7	4.47392
56.92	11.4679
57.14	7.11767
57.36	28.0259
57.58	2.36306
57.8	26.4575
58.02	26.4316
58.24	20.7526
58.46	20.3822
58.68	5.7051
58.9	3.46693
59.12	5.6189
59.34	19.7909
59.56	11.0363
59.78	26.5873
60	5.4569
60.22	37.5612
60.44	16.5671
60.66	2.42026
60.88	12.3637
61.1	26.0675
61.32	14.0109
61.54	28.2361
61.76	47.3979
61.98	13.8579
62.2	22.3322
62.42	5.96745
62.64	0.315826
62.86	3.2995
63.08	9.48969
63.3	22.9861
63.52	22.9351
63.74	28.0029
63.96	11.6978
64.18	52.4924
64.4	34.0757
64.62	7.71603
64.84	20.9546
65.06	21.8947
65.28	20.2259
65.5	13.9855
65.72	43.4808
65.94	17.0378
66.16	17.2615
66.38	26.655
66.6	35.5452
66.82	19.2708
67.04	22.9211
67.26	21.2242
67.48	2.29231
67.7	2.26066
67.92	8.657
68.14	0.863125
68.36	7.91341
68.58	20.8562
68.8	19.3275
69.02	15.766
69.24	33.6038
69.46	30.4472
69.68	14.1339
69.9	15.1485
70.12	15.0318
70.34	22.9642
70.56	2.20604
70.78	5.57643
71	13.5592
71.22	14.6253
71.44	16.0545
71.66	16.1532
71.88	6.44462
72.1	13.6381
72.32	15.4426
72.54	12.7447
72.76	2.77028
72.98	14.0831
73.2	14.8755
73.42	15.8125
73.64	24.8755
73.86	11.8847
74.08	7.09283
74.3	18.8647
74.52	35.2216
74.74	34.6017
74.96	20.867
75.18	22.6383
75.4	0.561817
75.62	19.501
75.84	32.5029
76.06	15.3154
76.28	3.04315
76.5	26.771
76.72	7.91341
76.94	24.5779
77.16	12.1942
77.38	30.1149
77.6	0.799793
77.82	13.3469
78.04	8.66183
78.26	8.27604
78.48	27.02
78.7	21.6771
78.92	18.0193
79.14	4.06977
79.36	6.18597
79.58	10.8699
79.8	3.16465
80.02	15.7082
80.24	2.60852
80.46	29.412
80.68	23.4069
80.9	8.82035
81.12	16.9357
81.34	26.7974
81.56	17.3353
81.78	23.4444
82	6.76433
82.22	5.80454
82.44	10.9114
82.66	0.884724
82.88	8.0867
83.1	2.52602
83.32	19.3645
83.54	10.5629
83.76	17.513
83.98	4.91691
84.2	34.6265
84.42	18.908
84.64	12.8699
84.86	2.72366
85.08	14.1833
85.3	31.4187
85.52	11.609
85.74	13.8397
85.96	6.2426
86.18	23.7389
86.4	15.972
86.62	2.53964
86.84	0.361187
87.06	22.0441
87.28	15.2333
87.5	13.337
87.72	15.6487
87.94	26.5814
88.16	27.5088
88.38	21.293
88.6	13.1032
88.82	11.7567
89.04	7.97105
89.26	21.2987
89.48	25.4327
89.7	0.356415
89.92	16.3888
