Measurement: Powder, Xray Data XY Processed
Mineral: Forsterite
Rruff sample: R040057
Ideal chemistry: Mg_2_SiO_4_
Locality: Trudy's mine, San Carlos, Gila County, Arizona, USA
Source: Bob Downs
Description: Dark green crystal fragments from xenoliths in a basalt flow
Diffraction sample description: Powder
Measured chemistry: (Mg_1.67_Fe_0.32_Ni_0.01_)_Î£=2_Si_1.00_O_4_; trace amounts of Mn and Ca
Cell parameters: a: 4.7669(4) b: 10.2453(7) c: 6.0021(6) alpha: 90. beta: 90. gamma: 90. volume: 293.13(3) crystal system: orthorhombic
x	intensity
5	0
5.22	29.051
5.44	8.746
5.66	17.352
5.88	22.648
6.1	13.545
6.32	6.347
6.54	8.991
6.76	4.473
6.98	20.524
7.2	13.918
7.42	7.211
7.64	27.891
7.86	15.186
8.08	27.262
8.3	8.141
8.52	10.158
8.74	19.433
8.96	18.099
9.18	24.404
9.4	21.061
9.62	14.355
9.84	13.225
10.06	3.147
10.28	23.485
10.5	1.167
10.72	11.989
10.94	25.969
11.16	6.035
11.38	10.61
11.6	3.929
11.82	0.57
12.04	30.972
12.26	0.9
12.48	9.147
12.7	4.801
12.92	16.131
13.14	21.932
13.36	4.005
13.58	22.958
13.8	11.444
14.02	19.621
14.24	19.443
14.46	0.344
14.68	17.041
14.9	8.168
15.12	11.252
15.34	20.23
15.56	41.05
15.78	2.161
16	25.963
16.22	37.705
16.44	9.779
16.66	31.139
16.88	21.972
17.1	42.729
17.32	200.507
17.54	20.893
17.76	23.708
17.98	24.5
18.2	4.306
18.42	18.309
18.64	1.626
18.86	17.079
19.08	24.979
19.3	22.956
19.52	16.209
19.74	22.893
19.96	27.631
20.18	19.375
20.4	3.596
20.62	9.633
20.84	5.14
21.06	23.56
21.28	21.974
21.5	29.791
21.72	5.09
21.94	21.913
22.16	12.8
22.38	15.766
22.6	44.429
22.82	344.145
23.04	31.297
23.26	41.848
23.48	23.529
23.7	1.561
23.92	38.938
24.14	19.116
24.36	36.228
24.58	41.989
24.8	6.383
25.02	8.793
25.24	16.623
25.46	105.822
25.68	10.941
25.9	31.821
26.12	16.667
26.34	20.458
26.56	22.144
26.78	31.038
27	20.632
27.22	1.823
27.44	2.698
27.66	28.287
27.88	20.718
28.1	14.21
28.32	8.776
28.54	9.507
28.76	30.629
28.98	13.207
29.2	2.964
29.42	10.711
29.64	63.2
29.86	91.503
30.08	12.724
30.3	3.075
30.52	20.533
30.74	4.846
30.96	14.757
31.18	27.547
31.4	13.939
31.62	33.861
31.84	17.363
32.06	31.259
32.28	370.485
32.5	32.101
32.72	1.452
32.94	10.022
33.16	29.954
33.38	2.959
33.6	16.824
33.82	7.614
34.04	32.399
34.26	6.144
34.48	11.328
34.7	20.961
34.92	39.331
35.14	17.312
35.36	14.387
35.58	159.736
35.8	59.522
36.02	11.928
36.24	40.348
36.46	554.092
36.68	40.11
36.9	24.866
37.12	44.276
37.34	10.402
37.56	33.797
37.78	14.596
38	15.411
38.22	190.199
38.44	22.041
38.66	3.421
38.88	34.365
39.1	34.163
39.32	19.295
39.54	43.655
39.76	59.968
39.98	207.395
40.2	11.706
40.42	1.41
40.64	18.95
40.86	28.658
41.08	10.304
41.3	19.27
41.52	21.514
41.74	47.332
41.96	8.377
42.18	26.007
42.4	17.822
42.62	9.801
42.84	20.575
43.06	21.803
43.28	12.601
43.5	7.206
43.72	13.005
43.94	13.943
44.16	6.843
44.38	16.974
44.6	44.063
44.82	50.638
45.04	1.773
45.26	3.921
45.48	20.985
45.7	28.994
45.92	24.2
46.14	6.982
46.36	23.105
46.58	26.458
46.8	11.162
47.02	10.312
47.24	25.078
47.46	34.179
47.68	11.834
47.9	20.614
48.12	12.463
48.34	325.752
48.56	12.227
48.78	47.866
49	8.621
49.22	23.299
49.44	13.246
49.66	19.243
49.88	30.185
50.1	12.341
50.32	35.618
50.54	4.848
50.76	30.506
50.98	24.708
51.2	13.865
51.42	2.36
51.64	31.452
51.86	5.522
52.08	73.619
52.3	420.574
52.52	58.19
52.74	56.702
52.96	11.995
53.18	3.788
53.4	17.99
53.62	18.862
53.84	41.314
54.06	3.663
54.28	19.349
54.5	8.034
54.72	37.611
54.94	30.663
55.16	21.46
55.38	11.987
55.6	25.468
55.82	11.902
56.04	52.365
56.26	26.438
56.48	1.139
56.7	58.508
56.92	22.214
57.14	20.474
57.36	9.787
57.58	14.199
57.8	64.75
58.02	4.474
58.24	15.653
58.46	35.936
58.68	125.11
58.9	24.099
59.12	15.56
59.34	30.188
59.56	17.511
59.78	10.286
60	17.981
60.22	14.767
60.44	32.69
60.66	35.133
60.88	21.114
61.1	25.263
61.32	7.084
61.54	23.814
61.76	23.677
61.98	71.632
62.2	3.959
62.42	10.616
62.64	34.98
62.86	28.579
63.08	7.45
63.3	30.817
63.52	21.981
63.74	18.485
63.96	14.776
64.18	19.764
64.4	9.259
64.62	32.384
64.84	22.595
65.06	7.453
65.28	2.75
65.5	16.972
65.72	7.699
65.94	2.494
66.16	28.5
66.38	3.741
66.6	29.588
66.82	62.344
67.04	45.444
67.26	46.072
67.48	13.257
67.7	6.477
67.92	27.347
68.14	2.583
68.36	6.703
68.58	2.609
68.8	18.369
69.02	14.508
69.24	16.571
69.46	33.904
69.68	35.211
69.9	15.078
70.12	12.272
70.34	7.621
70.56	9.589
70.78	13.596
71	26.699
71.22	13.629
71.44	51.717
71.66	18.587
71.88	22.745
72.1	16.669
72.32	13.514
72.54	16.87
72.76	40.779
72.98	34.327
73.2	13.977
73.42	29.998
73.64	3.87
73.86	40.014
74.08	17.692
74.3	10.857
74.52	14.409
74.74	9.585
74.96	27.078
75.18	31.556
75.4	8.138
75.62	12.686
75.84	26.121
76.06	22.482
76.28	0.877
76.5	22.084
76.72	28.032
76.94	2.86
77.16	8.046
77.38	22.37
77.6	5.671
77.82	21.834
78.04	43.06
78.26	13.343
78.48	15.715
78.7	12.098
78.92	11.943
79.14	19.303
79.36	15.167
79.58	29.071
79.8	6.279
80.02	23.203
80.24	6.171
80.46	30.13
80.68	2.449
80.9	22.157
81.12	4.461
81.34	24.833
81.56	8.489
81.78	16.098
82	5.344
82.22	12.11
82.44	40.763
82.66	15.367
82.88	29.044
83.1	10.941
83.32	13.53
83.54	28.131
83.76	0.35
83.98	27.137
84.2	22.31
84.42	16.62
84.64	6.347
84.86	91.132
85.08	14.592
85.3	30.052
85.52	26.204
85.74	39.353
85.96	30.916
86.18	10.526
86.4	15.423
86.62	19.463
86.84	23.066
87.06	31.179
87.28	10.303
87.5	18.914
87.72	13.987
87.94	12.456
88.16	8.018
88.38	2.342
88.6	8.262
88.82	7.316
89.04	34.037
89.26	25.113
89.48	18.3
89.7	17.029
89.92	10.349
