Measurement: Powder, Xray Data XY Processed
Mineral: Forsterite
Rruff sample: R060539
Ideal chemistry: Mg_2_SiO_4_
Locality: Sri Lanka
Source: Gemological Institute of America
Description: Brown cut gemstone
Diffraction sample description: Powder
Measured chemistry: (Mg_1.67_Fe_0.33_)_Î£=2_Si_1.00_O_4_; trace amounts of Mn and Ca
Cell parameters: a: 4.7673(1) b: 10.2488(3) c: 6.0030(2) alpha: 90 beta: 90 gamma: 90 volume: 293.30(1) crystal system: orthorhombic
x	intensity
5	0
5.22	0.123604
5.44	15.6792
5.66	0.137543
5.88	16.9902
6.1	7.69223
6.32	9.89802
6.54	17.3441
6.76	19.2308
6.98	12.3681
7.2	5.29351
7.42	8.53486
7.64	16.6534
7.86	7.83807
8.08	18.234
8.3	3.65863
8.52	19.3635
8.74	13.9864
8.96	18.0857
9.18	9.83522
9.4	2.03188
9.62	16.4307
9.84	5.06625
10.06	6.81995
10.28	3.73291
10.5	10.9777
10.72	5.13999
10.94	12.1601
11.16	9.30151
11.38	18.5271
11.6	5.2153
11.82	9.39607
12.04	14.1916
12.26	17.027
12.48	13.6534
12.7	13.7153
12.92	8.48428
13.14	15.2805
13.36	13.3413
13.58	15.1778
13.8	16.1909
14.02	10.0816
14.24	12.1374
14.46	18.5312
14.68	20.6877
14.9	3.78299
15.12	6.46042
15.34	16.2373
15.56	8.43324
15.78	18.2909
16	0.297905
16.22	3.18623
16.44	7.38402
16.66	9.32327
16.88	14.3095
17.1	13.4685
17.32	71.9908
17.54	11.9481
17.76	6.75425
17.98	7.90251
18.2	16.6986
18.42	6.07631
18.64	5.43803
18.86	17.1944
19.08	20.9571
19.3	16.223
19.52	16.3361
19.74	6.8773
19.96	16.982
20.18	17.6918
20.4	7.73686
20.62	14.376
20.84	14.843
21.06	17.4337
21.28	20.1539
21.5	9.86724
21.72	9.39709
21.94	9.15799
22.16	8.3763
22.38	8.65337
22.6	27.5566
22.82	79.3667
23.04	11.3484
23.26	1.73306
23.48	1.74406
23.7	25.0991
23.92	44.2339
24.14	4.75803
24.36	9.78931
24.58	13.381
24.8	10.8201
25.02	23.2763
25.24	13.2211
25.46	48.717
25.68	17.3626
25.9	8.3949
26.12	8.31963
26.34	13.4588
26.56	12.2412
26.78	0.857864
27	11.097
27.22	2.37097
27.44	12.3687
27.66	5.71154
27.88	0.280182
28.1	10.9743
28.32	8.07917
28.54	13.066
28.76	4.80012
28.98	11.6781
29.2	17.4305
29.42	10.5571
29.64	42.989
29.86	31.8391
30.08	13.7474
30.3	5.67328
30.52	13.1569
30.74	2.84344
30.96	0.465942
31.18	13.348
31.4	2.02451
31.62	0.612671
31.84	12.1253
32.06	29.9432
32.28	290.881
32.5	8.41601
32.72	5.7295
32.94	16.9507
33.16	9.81953
33.38	11.3052
33.6	2.41806
33.82	12.3612
34.04	12.6727
34.26	2.32535
34.48	6.3344
34.7	2.65849
34.92	24.3618
35.14	6.48005
35.36	0.965832
35.58	29.0126
35.8	30.3984
36.02	26.2607
36.24	2.87244
36.46	190.689
36.68	11.4158
36.9	9.574
37.12	1.12857
37.34	6.48653
37.56	27.0242
37.78	16.5058
38	11.466
38.22	84.1607
38.44	20.2338
38.66	7.29745
38.88	29.0421
39.1	7.29193
39.32	0.196995
39.54	10.8521
39.76	37.8893
39.98	149.248
40.2	11.5037
40.42	26.0155
40.64	14.5257
40.86	9.17598
41.08	14.5537
41.3	5.80095
41.52	1.58484
41.74	48.7651
41.96	11.4294
42.18	20.7107
42.4	17.2204
42.62	17.8551
42.84	2.90099
43.06	17.1855
43.28	11.1
43.5	15.1356
43.72	2.71898
43.94	17.3323
44.16	9.99478
44.38	26.3683
44.6	26.0143
44.82	18.9807
45.04	20.6079
45.26	15.6474
45.48	7.35264
45.7	18.3393
45.92	8.08768
46.14	17.8053
46.36	14.1862
46.58	15.5396
46.8	9.70227
47.02	15.4391
47.24	3.69131
47.46	15.0496
47.68	1.94677
47.9	6.15834
48.12	18.8768
48.34	40.3603
48.56	10.9965
48.78	18.4296
49	9.74269
49.22	4.59127
49.44	8.8692
49.66	15.1243
49.88	3.67963
50.1	7.31956
50.32	12.1762
50.54	13.3035
50.76	18.662
50.98	13.3655
51.2	1.02471
51.42	11.1216
51.64	3.95372
51.86	15.8493
52.08	35.6996
52.3	72.0348
52.52	23.0216
52.74	20.0649
52.96	16.3524
53.18	13.8849
53.4	12.0822
53.62	18.215
53.84	8.32598
54.06	9.37085
54.28	7.18058
54.5	6.47967
54.72	6.48963
54.94	26.3105
55.16	6.05878
55.38	7.72772
55.6	2.40649
55.82	0.387791
56.04	7.54674
56.26	2.5689
56.48	13.8694
56.7	53.3964
56.92	14.0168
57.14	28.7167
57.36	16.8379
57.58	3.99945
57.8	32.1755
58.02	10.4706
58.24	7.65654
58.46	9.43156
58.68	27.5925
58.9	14.4701
59.12	13.7746
59.34	10.6474
59.56	3.1376
59.78	10.8471
60	5.68778
60.22	32.4612
60.44	1.0784
60.66	6.2368
60.88	15.0684
61.1	17.9654
61.32	17.4663
61.54	14.9352
61.76	26.9672
61.98	46.3266
62.2	7.70785
62.42	17.5775
62.64	38.7915
62.86	18.0663
63.08	1.99072
63.3	11.6889
63.52	23.8434
63.74	11.4404
63.96	10.8272
64.18	10.2831
64.4	23.972
64.62	3.56428
64.84	15.8069
65.06	15.31
65.28	4.33517
65.5	15.9159
65.72	18.6281
65.94	9.40431
66.16	11.164
66.38	13.7587
66.6	12.7437
66.82	46.4523
67.04	23.2609
67.26	19.2039
67.48	17.2494
67.7	7.03271
67.92	8.31137
68.14	7.4049
68.36	10.4968
68.58	28.6188
68.8	11.201
69.02	19.5128
69.24	0.56974
69.46	0.651031
69.68	4.09973
69.9	1.95859
70.12	3.60558
70.34	14.4195
70.56	1.4324
70.78	12.5272
71	5.56772
71.22	12.2281
71.44	26.8837
71.66	25.0505
71.88	26.1584
72.1	15.5695
72.32	20.141
72.54	9.43278
72.76	20.5793
72.98	17.3219
73.2	9.42831
73.42	26.0586
73.64	13.1354
73.86	18.0727
74.08	21.5465
74.3	4.42691
74.52	13.0979
74.74	6.85206
74.96	10.0519
75.18	22.9536
75.4	13.6539
75.62	14.4513
75.84	0.101803
76.06	4.81986
76.28	9.50659
76.5	20.9727
76.72	25.0872
76.94	10.0696
77.16	8.42733
77.38	15.8121
77.6	2.6338
77.82	17.7044
78.04	20.9943
78.26	9.38052
78.48	12.6039
78.7	6.27655
78.92	15.177
79.14	9.95251
79.36	8.74894
79.58	4.49532
79.8	15.8463
80.02	0.33334
80.24	14.224
80.46	4.66548
80.68	14.9672
80.9	7.96951
81.12	13.0796
81.34	6.30158
81.56	2.08954
81.78	14.9394
82	7.73174
82.22	23.0172
82.44	3.16278
82.66	9.49478
82.88	3.77645
83.1	19.0077
83.32	14.7069
83.54	2.52163
83.76	19.6248
83.98	19.6361
84.2	3.44584
84.42	15.7044
84.64	1.10989
84.86	12.6726
85.08	23.3887
85.3	10.4108
85.52	14.7367
85.74	1.66745
85.96	13.9792
86.18	21.816
86.4	14.6464
86.62	11.6541
86.84	13.6434
87.06	17.1105
87.28	0.201946
87.5	21.9155
87.72	19.9714
87.94	0.703686
88.16	9.13957
88.38	15.6069
88.6	5.5651
88.82	6.68311
89.04	16.1127
89.26	28.4761
89.48	22.9382
89.7	8.86872
89.92	36.3899
