Measurement: Powder, Xray Data XY Processed
Mineral: Foshagite
Rruff sample: R070098
Ideal chemistry: Ca_4_(SiO_3_)_3_(OH)_2_
Locality: Crestmore, Califonia, USA
Source: Michael Scott
Description: Silky white compact mass
Diffraction sample description: Powder
x	intensity
5	0
5.22	2.13551
5.44	6.34422
5.66	13.1313
5.88	1.93057
6.1	124.493
6.32	2091.35
6.54	97.6533
6.76	47.9135
6.98	14.7184
7.2	16.4433
7.42	5.08461
7.64	1.6455
7.86	12.4666
8.08	0.784895
8.3	2.2246
8.52	1.08208
8.74	4.67046
8.96	1.08993
9.18	14.3708
9.4	0.065569
9.62	6.95771
9.84	4.65138
10.06	2.51366
10.28	3.03439
10.5	10.6902
10.72	10.6133
10.94	12.8196
11.16	16.0651
11.38	8.75356
11.6	8.69648
11.82	1.32591
12.04	7.53131
12.26	10.796
12.48	1.83767
12.7	25.8982
12.92	3.56655
13.14	7.38743
13.36	10.6038
13.58	4.61836
13.8	3.40021
14.02	7.70498
14.24	11.7459
14.46	9.32711
14.68	2.10457
14.9	4.8867
15.12	1.61547
15.34	2.42647
15.56	10.9025
15.78	1.07504
16	70.6333
16.22	20.4481
16.44	13.0331
16.66	6.8037
16.88	13.6796
17.1	5.58394
17.32	8.73823
17.54	3.59204
17.76	7.49195
17.98	6.37027
18.2	3.82505
18.42	11.0554
18.64	4.0271
18.86	7.75099
19.08	89.578
19.3	8.3038
19.52	15.3613
19.74	12.2579
19.96	12.289
20.18	2.7227
20.4	12.8609
20.62	5.01107
20.84	10.7281
21.06	0.123003
21.28	8.12045
21.5	2.06993
21.72	14.9753
21.94	5.70802
22.16	1.59579
22.38	10.8675
22.6	3.13009
22.82	10.8899
23.04	13.749
23.26	11.9048
23.48	9.50214
23.7	14.4741
23.92	10.5389
24.14	11.4378
24.36	7.38997
24.58	8.64786
24.8	13.981
25.02	1.25707
25.24	8.06028
25.46	0.448252
25.68	2.71276
25.9	4.06787
26.12	11.3039
26.34	1.54455
26.56	5.63252
26.78	2.76488
27	10.2111
27.22	15.9149
27.44	43.5265
27.66	25.6193
27.88	3.01673
28.1	5.84929
28.32	4.34894
28.54	11.2326
28.76	25.9178
28.98	93.758
29.2	56.2726
29.42	297.591
29.64	61.4175
29.86	66.8251
30.08	12.549
30.3	4.12415
30.52	12.1266
30.74	2.12714
30.96	5.9057
31.18	0.569649
31.4	1.83518
31.62	5.20131
31.84	37.7079
32.06	83.5282
32.28	15.1759
32.5	26.0682
32.72	27.8545
32.94	39.2889
33.16	32.143
33.38	6.9965
33.6	10.9976
33.82	1.94904
34.04	1.98488
34.26	11.2964
34.48	24.0059
34.7	9.78278
34.92	9.21693
35.14	12.8255
35.36	6.85773
35.58	6.12483
35.8	15.4811
36.02	27.7926
36.24	7.07235
36.46	2.16426
36.68	16.3553
36.9	4.39179
37.12	5.09807
37.34	5.05399
37.56	5.73866
37.78	8.03896
38	17.576
38.22	6.31686
38.44	16.042
38.66	38.1443
38.88	28.9138
39.1	21.7898
39.32	21.1593
39.54	15.3851
39.76	6.24465
39.98	1.21008
40.2	4.8907
40.42	0.425243
40.64	10.8436
40.86	9.47199
41.08	2.52727
41.3	7.10412
41.52	0.908077
41.74	4.80931
41.96	0.456636
42.18	6.74766
42.4	1.04696
42.62	9.36398
42.84	5.93263
43.06	19.7702
43.28	21.5131
43.5	14.0131
43.72	21.8055
43.94	11.7381
44.16	3.37557
44.38	2.66147
44.6	10.1192
44.82	8.47315
45.04	7.03296
45.26	16.626
45.48	17.6425
45.7	11.5282
45.92	2.17789
46.14	5.31228
46.36	17.1439
46.58	8.86358
46.8	13.2272
47.02	12.8094
47.24	8.69385
47.46	26.6655
47.68	20.4717
47.9	2.75
48.12	8.78919
48.34	1.34362
48.56	16.5419
48.78	1.6536
49	12.5396
49.22	17.2142
49.44	12.6091
49.66	12.6601
49.88	14.0209
50.1	9.31376
50.32	10.9515
50.54	6.09786
50.76	0.406767
50.98	5.25376
51.2	0.201099
51.42	18.5126
51.64	9.38301
51.86	0.845089
52.08	3.39036
52.3	0.963524
52.52	7.18536
52.74	3.5612
52.96	8.84142
53.18	10.4198
53.4	5.03344
53.62	9.45823
53.84	3.99286
54.06	8.30677
54.28	12.7464
54.5	15.4987
54.72	12.869
54.94	21.1428
55.16	7.80112
55.38	2.19288
55.6	2.68735
55.82	7.09741
56.04	8.47848
56.26	8.75082
56.48	0.993011
56.7	6.2215
56.92	1.40984
57.14	4.40107
57.36	9.91589
57.58	16.3558
57.8	21.5733
58.02	6.76182
58.24	5.75767
58.46	9.855
58.68	12.9549
58.9	8.54474
59.12	9.7039
59.34	13.7432
59.56	4.76225
59.78	11.5927
60	10.1106
60.22	8.07994
60.44	11.0249
60.66	12.0887
60.88	10.1717
61.1	3.75786
61.32	4.82697
61.54	10.0868
61.76	17.4438
61.98	7.9215
62.2	9.29751
62.42	7.88712
62.64	5.09408
62.86	1.32234
63.08	2.63963
63.3	7.82734
63.52	12.5265
63.74	0.111357
63.96	10.9993
64.18	4.79543
64.4	7.48931
64.62	6.28433
64.84	9.1124
65.06	4.04077
65.28	4.92662
65.5	9.79975
65.72	5.61178
65.94	8.96252
66.16	0.253058
66.38	8.22794
66.6	9.42716
66.82	4.59188
67.04	7.95493
67.26	4.10907
67.48	5.60751
67.7	6.5242
67.92	4.55761
68.14	4.59191
68.36	8.2592
68.58	4.02527
68.8	7.93728
69.02	2.92595
69.24	6.89872
69.46	12.2169
69.68	3.24658
69.9	6.09875
70.12	5.08506
70.34	10.0253
70.56	2.06435
70.78	3.25529
71	9.36241
71.22	3.92797
71.44	10.9148
71.66	11.249
71.88	7.23848
72.1	6.16894
72.32	10.3607
72.54	4.70362
72.76	0.013959
72.98	8.12345
73.2	5.18059
73.42	10.362
73.64	3.01495
73.86	1.74665
74.08	0.082
74.3	10.9461
74.52	4.03114
74.74	10.9118
74.96	7.57115
75.18	4.19842
75.4	3.96341
75.62	12.8283
75.84	7.66207
76.06	1.49871
76.28	9.23386
76.5	4.13329
76.72	7.08611
76.94	8.96169
77.16	3.04447
77.38	3.35026
77.6	3.64503
77.82	5.8111
78.04	2.98595
78.26	3.07665
78.48	3.76919
78.7	10.5397
78.92	12.2591
79.14	9.44347
79.36	5.78257
79.58	6.87308
79.8	11.7205
80.02	10.879
80.24	6.8529
80.46	6.80921
80.68	4.91877
80.9	13.1964
81.12	16.9454
81.34	5.2216
81.56	7.10716
81.78	9.94151
82	0.784285
82.22	2.56173
82.44	4.34661
82.66	2.36772
82.88	7.34377
83.1	7.16023
83.32	13.9886
83.54	16.217
83.76	5.43735
83.98	6.77492
84.2	4.97747
84.42	2.21134
84.64	11.4419
84.86	14.4517
85.08	10.0158
85.3	3.24709
85.52	5.29008
85.74	8.22195
85.96	8.9806
86.18	1.84235
86.4	5.5102
86.62	7.35155
86.84	0.18682
87.06	5.04532
87.28	2.13989
87.5	2.32283
87.72	9.51844
87.94	6.62023
88.16	4.58678
88.38	12.7306
88.6	9.01195
88.82	3.90558
89.04	5.18792
89.26	5.23466
89.48	10.5426
89.7	7.87178
89.92	1.57227
