Measurement: Powder, Xray Data XY Processed
Mineral: Frankamenite
Rruff sample: R060100
Ideal chemistry: K_3_Na_3_Ca_5_Si_12_O_30_(F,OH)_4_H_2_O
Locality: Murun Massif, Sakka, Yakutia, Russia
Source: University of Arizona Mineral Museum
Description: Gray thin laths associated with purple charoite
Diffraction sample description: Powder, cell parameters are from single crystal
Measured chemistry: (K_2.95_Na_0.05_)_Σ=3_Na_3.00_(Ca_4.90_Mn_0.10_)_Σ=5_Si_12.00_O_30_F_4.00_
Cell parameters: a: 10.065(1) b: 12.669(1) c: 7.2217(6) alpha: 90.012(8) beta: 110.986(8) gamma: 110.206(7) volume: 798.8(1) crystal system: triclinic
x	intensity
5	0
5.22	7.254
5.44	10.554
5.66	2.952
5.88	13
6.1	10.148
6.32	11.866
6.54	4.928
6.76	15.485
6.98	13.935
7.2	5.748
7.42	5.366
7.64	9.256
7.86	4.329
8.08	4.252
8.3	6.315
8.52	1.902
8.74	5.576
8.96	1.795
9.18	9.607
9.4	16.17
9.62	4.92
9.84	0.457
10.06	3.89
10.28	5.858
10.5	2.853
10.72	6.855
10.94	5.714
11.16	2.906
11.38	29.07
11.6	9.074
11.82	14.653
12.04	4.329
12.26	2.114
12.48	14.611
12.7	4.385
12.92	5.999
13.14	12.052
13.36	1.244
13.58	12.627
13.8	10.403
14.02	0.148
14.24	1.923
14.46	11.896
14.68	7.287
14.9	14.312
15.12	31.33
15.34	9.437
15.56	12.063
15.78	9.595
16	2.724
16.22	10.785
16.44	5.728
16.66	3.417
16.88	9.324
17.1	9.545
17.32	14.472
17.54	10.623
17.76	8.544
17.98	0.612
18.2	10.912
18.42	4.699
18.64	6.073
18.86	112.453
19.08	2.56
19.3	9.288
19.52	11.123
19.74	9.931
19.96	6.907
20.18	11.847
20.4	13.774
20.62	10.612
20.84	8.795
21.06	55.718
21.28	1.678
21.5	6.591
21.72	8.877
21.94	4.016
22.16	0.479
22.38	9.759
22.6	9.267
22.82	4.302
23.04	4.132
23.26	13.748
23.48	9.427
23.7	11.965
23.92	6.687
24.14	19.559
24.36	8.259
24.58	21.383
24.8	6.071
25.02	6.939
25.24	6.087
25.46	15.779
25.68	13.47
25.9	6.187
26.12	9.255
26.34	1.142
26.56	10.277
26.78	41.9
27	7.215
27.22	12.467
27.44	5.571
27.66	1.215
27.88	8.268
28.1	39.331
28.32	5.651
28.54	1.442
28.76	23.426
28.98	91.495
29.2	13.306
29.42	0.441
29.64	36.108
29.86	12.567
30.08	0.276
30.3	16.24
30.52	10.715
30.74	172.095
30.96	7.985
31.18	12.222
31.4	8.319
31.62	10.641
31.84	15.775
32.06	6.279
32.28	8.104
32.5	2.026
32.72	20.065
32.94	9.149
33.16	4.706
33.38	4.702
33.6	12.31
33.82	16.305
34.04	10.72
34.26	24.8
34.48	14.316
34.7	16.106
34.92	14.509
35.14	12.994
35.36	3.353
35.58	22.017
35.8	11.135
36.02	14.203
36.24	2.779
36.46	0
36.68	1.968
36.9	8.936
37.12	11.019
37.34	3.094
37.56	0.656
37.78	6.626
38	8.55
38.22	37.775
38.44	9.731
38.66	4.745
38.88	2.121
39.1	24.05
39.32	9.322
39.54	11.325
39.76	3.482
39.98	8.175
40.2	13.779
40.42	11.573
40.64	5.439
40.86	16.703
41.08	8.734
41.3	8.507
41.52	16.426
41.74	2.089
41.96	3.182
42.18	10.992
42.4	1.014
42.62	3.076
42.84	4.441
43.06	0.588
43.28	18.681
43.5	14.964
43.72	15.209
43.94	17.648
44.16	0.935
44.38	0.314
44.6	0.67
44.82	5.359
45.04	0.594
45.26	9.469
45.48	13.533
45.7	3.425
45.92	3.063
46.14	3.75
46.36	21.73
46.58	2.832
46.8	9.208
47.02	6.204
47.24	3.627
47.46	11.187
47.68	7.997
47.9	0.215
48.12	2.488
48.34	8.719
48.56	15.501
48.78	3.591
49	6.677
49.22	7.085
49.44	2.761
49.66	4.61
49.88	4.854
50.1	13.293
50.32	19.198
50.54	20.109
50.76	7.075
50.98	0.768
51.2	13.749
51.42	3.993
51.64	12.165
51.86	7.361
52.08	3.397
52.3	10.415
52.52	8.9
52.74	4.234
52.96	0.472
53.18	7.876
53.4	3.775
53.62	6
53.84	7.292
54.06	12.28
54.28	1.512
54.5	3.324
54.72	3.053
54.94	5.39
55.16	6.567
55.38	7.526
55.6	9.303
55.82	0.131
56.04	29.861
56.26	8.981
56.48	11.047
56.7	20.902
56.92	13.964
57.14	2.902
57.36	0.952
57.58	0.992
57.8	4.938
58.02	5.898
58.24	3.15
58.46	3.607
58.68	1.244
58.9	12.582
59.12	6.496
59.34	8.49
59.56	7.543
59.78	4.964
60	0.996
60.22	15.032
60.44	9.097
60.66	5.674
60.88	3.849
61.1	16.608
61.32	13.049
61.54	20.146
61.76	11.257
61.98	3.108
62.2	1.14
62.42	0.694
62.64	4.87
62.86	6.042
63.08	9.186
63.3	6.557
63.52	11.645
63.74	2.845
63.96	5.927
64.18	4.005
64.4	7.988
64.62	7.96
64.84	5.603
65.06	4.557
65.28	15.411
65.5	11.087
65.72	3.827
65.94	2.44
66.16	5.226
66.38	13.341
66.6	6.38
66.82	4.375
67.04	12.527
67.26	10.613
67.48	5.663
67.7	6.838
67.92	4.035
68.14	6.382
68.36	4.634
68.58	9.062
68.8	5.988
69.02	5.449
69.24	2.592
69.46	1.399
69.68	8.378
69.9	7.412
70.12	1.722
70.34	3.634
70.56	8.404
70.78	3.305
71	2.791
71.22	5.777
71.44	8.43
71.66	1.396
71.88	1.136
72.1	3.912
72.32	4.955
72.54	10.846
72.76	2.98
72.98	1.817
73.2	3.158
73.42	10.484
73.64	9.574
73.86	6.616
74.08	3.587
74.3	5.177
74.52	7.313
74.74	4.367
74.96	15.219
75.18	6.199
75.4	8.187
75.62	6.16
75.84	12.038
76.06	6.861
76.28	8.83
76.5	3.802
76.72	5.843
76.94	2.819
77.16	0.695
77.38	0.251
77.6	5.946
77.82	7.05
78.04	9.167
78.26	5.326
78.48	0.48
78.7	7.611
78.92	6.023
79.14	10.017
79.36	1.201
79.58	7.521
79.8	5.477
80.02	10.225
80.24	5.489
80.46	1.558
80.68	11.203
80.9	3.111
81.12	5.96
81.34	3.547
81.56	10.246
81.78	5.245
82	14.882
82.22	0.896
82.44	5.123
82.66	0.171
82.88	2.721
83.1	15.82
83.32	1.942
83.54	7.114
83.76	3.482
83.98	8.776
84.2	2.688
84.42	0.212
84.64	4.778
84.86	12.483
85.08	4.504
85.3	2.599
85.52	5.516
85.74	2.476
85.96	1.37
86.18	3.223
86.4	9.025
86.62	11.331
86.84	5.33
87.06	10.716
87.28	4.867
87.5	2.867
87.72	2.81
87.94	3.97
88.16	2.013
88.38	8.144
88.6	5.999
88.82	13.007
89.04	4.028
89.26	7.576
89.48	8.778
89.7	13.761
89.92	4.833
