Measurement: Powder, Xray Data XY Processed
Mineral: Freieslebenite
Rruff sample: R060174
Ideal chemistry: Ag^1+^Pb^2+^Sb^3+^S^2-^_3_
Locality: Van Silver mine, Vancouver, British Columbia, Canada
Source: Ty Balacko, TB
Description: Pale steel-gray striated prismatic crystals
Diffraction sample description: Single crystal, powder profile is calculated
Measured chemistry: Ag_1.00_(Pb_0.95_Fe_0.05_)_Î£=1_Sb_1.00_S_3.00_
Cell parameters: a: 7.5187(15) b: 12.818(3) c: 5.9432(13) alpha: 90 beta: 92.296(9) gamma: 90 volume: 572.3(4) crystal system: monoclinic
x	intensity
5	0
5.22	0
5.44	0
5.66	0
5.88	0
6.1	0
6.32	0
6.54	0
6.76	0
6.98	0
7.2	0
7.42	0
7.64	0
7.86	0
8.08	0
8.3	0
8.52	0
8.74	0
8.96	0
9.18	0
9.4	0
9.62	0
9.84	0
10.06	0
10.28	0
10.5	0
10.72	0
10.94	0
11.16	0
11.38	0
11.6	0
11.82	0
12.04	0
12.26	0
12.48	0
12.7	0
12.92	0
13.14	0
13.36	0
13.58	0.33
13.8	0.743
14.02	0
14.24	0
14.46	0
14.68	0
14.9	0.008
15.12	0
15.34	0
15.56	0
15.78	0
16	0
16.22	0
16.44	2.021
16.66	0
16.88	0
17.1	0
17.32	0
17.54	0
17.76	0
17.98	0
18.2	4.44
18.42	0
18.64	0
18.86	0
19.08	0
19.3	0
19.52	0
19.74	0
19.96	4.537
20.18	0
20.4	0.003
20.62	2.787
20.84	0
21.06	0
21.28	0
21.5	0
21.72	0
21.94	0
22.16	0
22.38	0
22.6	0
22.82	0
23.04	0
23.26	0.705
23.48	0
23.7	3.131
23.92	2.254
24.14	0
24.36	0
24.58	0.005
24.8	0.067
25.02	0
25.24	0
25.46	0
25.68	77.464
25.9	0
26.12	0
26.34	0
26.56	0
26.78	0
27	0
27.22	0
27.44	0.143
27.66	9.172
27.88	0.63
28.1	0.002
28.32	0
28.54	4.44
28.76	0.203
28.98	0
29.2	0
29.42	0.003
29.64	0
29.86	0
30.08	51.016
30.3	2.205
30.52	0
30.74	0
30.96	3.469
31.18	0
31.4	0
31.62	7.231
31.84	3.913
32.06	0.001
32.28	0
32.5	0
32.72	1.49
32.94	0
33.16	0.087
33.38	0.036
33.6	0.926
33.82	0.279
34.04	0.007
34.26	0.549
34.48	0
34.7	0.212
34.92	0.787
35.14	0.001
35.36	0
35.58	0.968
35.8	0.959
36.02	0
36.24	0
36.46	0.118
36.68	0.137
36.9	0.272
37.12	0.125
37.34	0
37.56	0
37.78	0.331
38	0.05
38.22	0.275
38.44	0.237
38.66	0.306
38.88	0
39.1	0.343
39.32	0.051
39.54	0.386
39.76	0.001
39.98	0.358
40.2	0.608
40.42	0.69
40.64	0.021
40.86	0
41.08	0.418
41.3	0.001
41.52	0.586
41.74	0.029
41.96	2.135
42.18	0.572
42.4	8.466
42.62	0.001
42.84	0.368
43.06	0.004
43.28	0
43.5	11.632
43.72	3.536
43.94	0.004
44.16	0.1
44.38	0
44.6	0
44.82	0.013
45.04	9.243
45.26	0.003
45.48	0
45.7	0.001
45.92	0.241
46.14	0.038
46.36	0.028
46.58	0.002
46.8	0.889
47.02	0.439
47.24	0.004
47.46	0.091
47.68	0.318
47.9	0
48.12	0.672
48.34	0.346
48.56	5.01
48.78	0.196
49	2.405
49.22	0.199
49.44	0
49.66	0
49.88	0
50.1	0.083
50.32	1.02
50.54	0.053
50.76	7.475
50.98	2.087
51.2	9.446
51.42	2.484
51.64	0.218
51.86	7.134
52.08	0.038
52.3	0.02
52.52	0.02
52.74	15.075
52.96	0.851
53.18	1.712
53.4	0.888
53.62	0.721
53.84	0.226
54.06	0.128
54.28	0
54.5	0.09
54.72	0.047
54.94	0.737
55.16	2.949
55.38	0.003
55.6	0.028
55.82	0.355
56.04	0.201
56.26	1.344
56.48	0.138
56.7	0.051
56.92	5.578
57.14	0.244
57.36	0.024
57.58	0.043
57.8	0.059
58.02	0.482
58.24	0.033
58.46	0.006
58.68	0.019
58.9	0.089
59.12	0.358
59.34	1.362
59.56	0.04
59.78	0.114
60	0.049
60.22	0.04
60.44	0.033
60.66	0
60.88	0.062
61.1	0.315
61.32	0.412
61.54	0.003
61.76	0
61.98	0
62.2	0.08
62.42	0.096
62.64	0.615
62.86	0.184
63.08	0.089
63.3	0.001
63.52	0.417
63.74	0.252
63.96	0.098
64.18	0.286
64.4	0.219
64.62	0.178
64.84	0.186
65.06	0.185
65.28	0.206
65.5	0.075
65.72	0.273
65.94	0.054
66.16	3.181
66.38	3.063
66.6	0.052
66.82	0.17
67.04	0.025
67.26	0.545
67.48	0.259
67.7	0.403
67.92	0.232
68.14	0.034
68.36	0.005
68.58	2.588
68.8	1.06
69.02	0.424
69.24	0.11
69.46	0.079
69.68	0.043
69.9	0.07
70.12	3.563
70.34	1.454
70.56	0.304
70.78	3.78
71	1.284
71.22	1.311
71.44	0.946
71.66	0.206
71.88	0.452
72.1	0.27
72.32	0.044
72.54	0.012
72.76	0.791
72.98	0.7
73.2	0.175
73.42	2.616
73.64	1.248
73.86	0.327
74.08	0.088
74.3	2.279
74.52	1.219
74.74	0.094
74.96	0.044
75.18	0.061
75.4	2.534
75.62	1.267
75.84	0.598
76.06	0.315
76.28	0.008
76.5	0.005
76.72	0.007
76.94	0.096
77.16	0.665
77.38	0.439
77.6	0.244
77.82	0.07
78.04	0.027
78.26	0.669
78.48	0.535
78.7	0.734
78.92	0.44
79.14	1.6
79.36	0.494
79.58	0.043
79.8	0.77
80.02	0.696
80.24	0.022
80.46	0.006
80.68	0.003
80.9	0.951
81.12	0.53
81.34	0.032
81.56	0.033
81.78	0.176
82	0.099
82.22	0.198
82.44	0.676
82.66	0.473
82.88	0.065
83.1	0.071
83.32	0.077
83.54	1.674
83.76	0.451
83.98	0.016
84.2	0.113
84.42	0.278
84.64	1.85
84.86	1.124
85.08	0.162
85.3	0.165
85.52	0.567
85.74	0.264
85.96	0.363
86.18	0.114
86.4	0.127
86.62	0.016
86.84	0.165
87.06	0.162
87.28	0.283
87.5	0.396
87.72	0.223
87.94	1.2
88.16	0.567
88.38	0.015
88.6	0.107
88.82	0.141
89.04	0.265
89.26	0.483
89.48	0.006
89.7	0.024
89.92	0.07
