Measurement: Powder, Xray Data XY Processed
Mineral: Friedelite
Rruff sample: R060364
Ideal chemistry: Mn^2+^_8_Si_6_O_15_(OH)_10_
Locality: Sterling Hill mine, Ogdensburg, Sussex County, New Jersey, USA
Source: Herb Obodda
Description: Brownish-red fine-grained massive
Diffraction sample description: Powder
Measured chemistry: (Mn^2+^_7.46_Mg_0.54_)_Σ=8_Si_6.00_O_15_((OH)_9.26_Cl_0.74_)_Σ=10_
Cell parameters: a: 23.221(6) b: 13.4075(4) c: 7.4588(4) alpha: 90 beta: 105.002(6) gamma: 90 volume: 2243.1(5) crystal system: monoclinic
x	intensity
5	0
5.22	6.11
5.44	7.133
5.66	0.002
5.88	6.644
6.1	18.31
6.32	17.005
6.54	16.592
6.76	12.38
6.98	9.597
7.2	6.081
7.42	9.352
7.64	40.227
7.86	13.532
8.08	21.858
8.3	10.817
8.52	8.266
8.74	5.414
8.96	20.187
9.18	3.437
9.4	5.181
9.62	17.599
9.84	13.971
10.06	6.09
10.28	2.382
10.5	13.041
10.72	14.733
10.94	15.663
11.16	20.263
11.38	6.282
11.6	1.067
11.82	10.016
12.04	17.725
12.26	177.491
12.48	24.209
12.7	0.868
12.92	28.411
13.14	3.708
13.36	5.172
13.58	2.596
13.8	9.702
14.02	8.832
14.24	0.226
14.46	9.947
14.68	19.83
14.9	8.681
15.12	3.14
15.34	12.028
15.56	15.852
15.78	23.589
16	15.891
16.22	25.243
16.44	19.225
16.66	17.225
16.88	2.17
17.1	25.814
17.32	17.115
17.54	10.287
17.76	5.247
17.98	17.618
18.2	24.263
18.42	3.205
18.64	8.183
18.86	36.285
19.08	10.198
19.3	14.651
19.52	16.212
19.74	4.615
19.96	24.393
20.18	23.535
20.4	2.527
20.62	0.531
20.84	25.236
21.06	5.709
21.28	16.642
21.5	18.142
21.72	12.022
21.94	10.218
22.16	5.357
22.38	14.458
22.6	11.027
22.82	13.318
23.04	21.152
23.26	5.078
23.48	6.68
23.7	15.113
23.92	11.915
24.14	17.289
24.36	0.823
24.58	26.073
24.8	137.866
25.02	24.361
25.24	20.367
25.46	6.956
25.68	10.932
25.9	26.904
26.12	1.11
26.34	11.01
26.56	17.398
26.78	16.09
27	22.351
27.22	3.517
27.44	13.915
27.66	5.063
27.88	2.401
28.1	11.676
28.32	15.943
28.54	15.7
28.76	12.307
28.98	8.066
29.2	16.841
29.42	15.752
29.64	29.475
29.86	8.367
30.08	10.336
30.3	14.995
30.52	34.715
30.74	23.762
30.96	10.248
31.18	71.546
31.4	19.808
31.62	3.67
31.84	0.548
32.06	4.556
32.28	20.247
32.5	7.501
32.72	24.271
32.94	1.884
33.16	5.091
33.38	15.026
33.6	24.477
33.82	5.277
34.04	3.107
34.26	4.547
34.48	44.737
34.7	19.638
34.92	26.729
35.14	169.704
35.36	20.059
35.58	17.052
35.8	20.036
36.02	16.027
36.24	3.044
36.46	15.234
36.68	13.78
36.9	7.433
37.12	11.866
37.34	49.9
37.56	8.94
37.78	5.662
38	23.307
38.22	4.41
38.44	10.069
38.66	14.777
38.88	5.532
39.1	12.425
39.32	32.472
39.54	16.904
39.76	13.118
39.98	9.365
40.2	13.023
40.42	12.029
40.64	14.991
40.86	25.483
41.08	15.811
41.3	12.236
41.52	10.402
41.74	9.279
41.96	5.398
42.18	7.406
42.4	19.643
42.62	26.901
42.84	45.875
43.06	19.72
43.28	10.844
43.5	13.925
43.72	4.999
43.94	2.947
44.16	5.703
44.38	2.989
44.6	16.095
44.82	4.598
45.04	18.437
45.26	3.522
45.48	9.298
45.7	10.721
45.92	38.299
46.14	23.122
46.36	22.047
46.58	22.728
46.8	13.247
47.02	1.212
47.24	21.327
47.46	15.288
47.68	7.688
47.9	21.997
48.12	10.911
48.34	8.762
48.56	20.227
48.78	4.372
49	2.132
49.22	14.259
49.44	23.862
49.66	8.595
49.88	12.588
50.1	16.329
50.32	16.668
50.54	18.146
50.76	6.862
50.98	23.679
51.2	14.46
51.42	7.448
51.64	18.355
51.86	8.309
52.08	18.329
52.3	18.529
52.52	5.148
52.74	33.898
52.96	38.202
53.18	1.466
53.4	11.526
53.62	13.555
53.84	10.604
54.06	10.031
54.28	7.63
54.5	16.688
54.72	30.873
54.94	37.699
55.16	14.765
55.38	13.452
55.6	5.998
55.82	3.831
56.04	10.687
56.26	35.218
56.48	26.611
56.7	27.181
56.92	16.355
57.14	1.028
57.36	13.626
57.58	13.769
57.8	13.307
58.02	18.405
58.24	25.334
58.46	15.405
58.68	20.548
58.9	3.4
59.12	27.96
59.34	28.03
59.56	9.222
59.78	24.692
60	10.785
60.22	3.571
60.44	2.803
60.66	1.874
60.88	18.895
61.1	24.241
61.32	0.49
61.54	2.979
61.76	12.684
61.98	5.045
62.2	15.145
62.42	6.177
62.64	18.76
62.86	21.593
63.08	9.246
63.3	3.08
63.52	1.5
63.74	3.114
63.96	9.067
64.18	22.065
64.4	21.365
64.62	18.085
64.84	9.295
65.06	4.453
65.28	2.596
65.5	7.858
65.72	9.021
65.94	8.437
66.16	3.865
66.38	14.01
66.6	6.365
66.82	29.415
67.04	32.028
67.26	12.967
67.48	17.194
67.7	22.577
67.92	28.899
68.14	24.747
68.36	6.556
68.58	10.231
68.8	19.286
69.02	11.847
69.24	7.231
69.46	28.459
69.68	22.709
69.9	18.786
70.12	3.07
70.34	6.799
70.56	18.119
70.78	13.012
71	7.105
71.22	16.52
71.44	14.349
71.66	12.177
71.88	34.204
72.1	27.438
72.32	9.133
72.54	20.127
72.76	25.704
72.98	2.546
73.2	10.544
73.42	17.18
73.64	13.71
73.86	25.405
74.08	9.406
74.3	22.69
74.52	1.643
74.74	16.941
74.96	10.218
75.18	16.351
75.4	19.127
75.62	20.348
75.84	1.362
76.06	1.422
76.28	14.824
76.5	22.72
76.72	19.433
76.94	8.406
77.16	8.161
77.38	8.761
77.6	11.539
77.82	13.998
78.04	1.991
78.26	9.698
78.48	8.463
78.7	15.361
78.92	8.971
79.14	16.379
79.36	13.227
79.58	15.822
79.8	18.224
80.02	15.535
80.24	15.11
80.46	15.567
80.68	7.866
80.9	16.045
81.12	8.493
81.34	6.113
81.56	16.747
81.78	12.827
82	12.371
82.22	2.34
82.44	17.943
82.66	4.554
82.88	11.467
83.1	11.32
83.32	25.275
83.54	17.228
83.76	18.101
83.98	11.334
84.2	11.192
84.42	22.445
84.64	11.114
84.86	12.747
85.08	1.053
85.3	17.948
85.52	6.335
85.74	5.324
85.96	13.099
86.18	9.799
86.4	12.895
86.62	20.124
86.84	16.789
87.06	19.606
87.28	11.842
87.5	4.955
87.72	13.036
87.94	9.927
88.16	15.111
88.38	24.111
88.6	17.28
88.82	7.278
89.04	3.518
89.26	16.298
89.48	12.582
89.7	9.21
89.92	18.796
