Measurement: Powder, Xray Data XY Processed
Mineral: Frondelite
Rruff sample: R050622
Ideal chemistry: (Mn^2+^_0.5_Fe^3+^_0.5_)_2_Fe^3+^_3_(PO_4_)_3_(OH)_5_
Locality: Hagendorf, Bavaria, Germany
Source: University of Arizona Mineral Museum
Description: Black bladed crystals in divergent radial aggregates
Diffraction sample description: Powder, cell parameters are from single crystal
Measured chemistry: (Mn^2+^_0.63_Fe^2+^_0.37_)_Î£=1_Fe^3+^_4.00_(P_1.00_O_4_)_3_(OH)_5_
Cell parameters: a: 13.958(7) b: 16.794(8) c: 5.175(1) alpha: 90 beta: 90 gamma: 90 volume: 1212.9(5) crystal system: orthorhombic
x	intensity
5	0
5.22	24.404
5.44	27.879
5.66	17.68
5.88	25.799
6.1	33.515
6.32	26.878
6.54	0.966
6.76	22.153
6.98	16.754
7.2	23.45
7.42	18.18
7.64	32.594
7.86	26.63
8.08	7.493
8.3	23.223
8.52	16.419
8.74	25.459
8.96	11.548
9.18	23.619
9.4	12.195
9.62	33.8
9.84	0.879
10.06	15.115
10.28	3.156
10.5	13.139
10.72	16.336
10.94	4.755
11.16	22.92
11.38	9.591
11.6	16.252
11.82	11.543
12.04	4.328
12.26	10.382
12.48	27.092
12.7	80.091
12.92	14.033
13.14	15.064
13.36	13.118
13.58	17.189
13.8	11.813
14.02	1.011
14.24	16.685
14.46	39.781
14.68	2.595
14.9	24.194
15.12	10.477
15.34	14.602
15.56	13.069
15.78	18.197
16	1.505
16.22	12.394
16.44	10.942
16.66	26.789
16.88	30.865
17.1	33.574
17.32	15.085
17.54	14.567
17.76	20.145
17.98	17.158
18.2	13.41
18.42	23.98
18.64	12.947
18.86	6.988
19.08	13.092
19.3	12.628
19.52	22.49
19.74	12.013
19.96	2.781
20.18	29.24
20.4	18.958
20.62	13.613
20.84	29.252
21.06	16.506
21.28	8.302
21.5	22.473
21.72	13.227
21.94	27.754
22.16	24.27
22.38	12.738
22.6	34.053
22.82	12.012
23.04	12.057
23.26	10.642
23.48	24.162
23.7	12.754
23.92	16.755
24.14	27.615
24.36	15.955
24.58	7.035
24.8	17.35
25.02	15.536
25.24	3.234
25.46	5.426
25.68	23.949
25.9	17.791
26.12	103.726
26.34	21.137
26.56	34.628
26.78	19.199
27	20.617
27.22	24.92
27.44	19.144
27.66	34.403
27.88	65.339
28.1	33.761
28.32	7.748
28.54	17.685
28.76	4.342
28.98	8.68
29.2	21.551
29.42	24.402
29.64	37.31
29.86	16.95
30.08	11.654
30.3	13.424
30.52	33.529
30.74	22.687
30.96	21.244
31.18	14.143
31.4	8.679
31.62	22.016
31.84	15.119
32.06	23.259
32.28	27.92
32.5	32.248
32.72	11.17
32.94	0.553
33.16	0.116
33.38	25.724
33.6	7.162
33.82	13.271
34.04	30.134
34.26	15.047
34.48	22.754
34.7	3.573
34.92	12.332
35.14	8.005
35.36	15.285
35.58	30.4
35.8	19.869
36.02	17.113
36.24	7.046
36.46	14.996
36.68	20.91
36.9	14.558
37.12	36.706
37.34	48.171
37.56	35.003
37.78	11.701
38	3.92
38.22	27.21
38.44	9.236
38.66	16.323
38.88	6.797
39.1	6.153
39.32	24.409
39.54	30.806
39.76	16.139
39.98	27.832
40.2	17.175
40.42	6.717
40.64	12.332
40.86	7.043
41.08	25.664
41.3	34.755
41.52	12.38
41.74	16.123
41.96	33.463
42.18	10.828
42.4	10.691
42.62	26.726
42.84	21.433
43.06	3.65
43.28	31.206
43.5	15.296
43.72	19.622
43.94	14.136
44.16	14.75
44.38	26.122
44.6	14.988
44.82	9.83
45.04	13.363
45.26	2.412
45.48	29.566
45.7	2.9
45.92	1.068
46.14	15.436
46.36	21.122
46.58	19.522
46.8	8.937
47.02	30.98
47.24	33.251
47.46	34.999
47.68	16.052
47.9	29.049
48.12	20.248
48.34	23.475
48.56	18.021
48.78	39.578
49	24.206
49.22	4.346
49.44	21.031
49.66	22.743
49.88	10.958
50.1	34.366
50.32	27.407
50.54	8.075
50.76	0.808
50.98	0.604
51.2	19.78
51.42	10.838
51.64	16.119
51.86	20.986
52.08	25.433
52.3	11.797
52.52	14.727
52.74	12.255
52.96	8.133
53.18	10.299
53.4	16.53
53.62	2.573
53.84	26.199
54.06	22.893
54.28	11.268
54.5	16.619
54.72	4.688
54.94	20.227
55.16	15.473
55.38	21.3
55.6	14.275
55.82	34.14
56.04	18.397
56.26	6.736
56.48	0.62
56.7	16.472
56.92	10.709
57.14	40.082
57.36	22.529
57.58	5.26
57.8	24.004
58.02	6.39
58.24	16.406
58.46	2.055
58.68	6.184
58.9	11.528
59.12	22.763
59.34	31.984
59.56	15.545
59.78	20.533
60	20.192
60.22	8.987
60.44	11.493
60.66	11.599
60.88	9.788
61.1	9.656
61.32	23.574
61.54	27.649
61.76	3.957
61.98	10.415
62.2	36.527
62.42	26.857
62.64	30.23
62.86	17.151
63.08	23.732
63.3	16.574
63.52	39.52
63.74	13
63.96	19.833
64.18	23.625
64.4	30.635
64.62	11.587
64.84	39.506
65.06	29.349
65.28	40.973
65.5	24.2
65.72	39.637
65.94	0.865
66.16	16.244
66.38	23.214
66.6	16.003
66.82	26.715
67.04	12.435
67.26	13.38
67.48	7.585
67.7	31.307
67.92	8.406
68.14	32.137
68.36	2.927
68.58	16.536
68.8	13.772
69.02	2.794
69.24	3.844
69.46	18.957
69.68	6.009
69.9	25.279
70.12	15.529
70.34	22.951
70.56	15.39
70.78	34.275
71	13.494
71.22	20.755
71.44	23.354
71.66	3.939
71.88	6.874
72.1	29.92
72.32	30.601
72.54	24.704
72.76	15.304
72.98	31.433
73.2	16.662
73.42	14.595
73.64	16.31
73.86	35.828
74.08	22.489
74.3	17.468
74.52	19.787
74.74	4.849
74.96	9.198
75.18	31.105
75.4	21.442
75.62	0.071
75.84	7.514
76.06	33.031
76.28	13.279
76.5	38.159
76.72	11.028
76.94	0.897
77.16	16.672
77.38	3.582
77.6	25.488
77.82	19.037
78.04	2.052
78.26	8.094
78.48	25.933
78.7	19.363
78.92	1.319
79.14	25.336
79.36	14.109
79.58	21.772
79.8	12.892
80.02	9.609
80.24	12.812
80.46	16.048
80.68	7.992
80.9	12.846
81.12	30.013
81.34	15.996
81.56	30.856
81.78	18.179
82	16.21
82.22	20.639
82.44	9.631
82.66	24.296
82.88	26.023
83.1	7.574
83.32	17.356
83.54	43.246
83.76	7.26
83.98	23.486
84.2	11.638
84.42	0.937
84.64	14.853
84.86	35.476
85.08	22.241
85.3	24.302
85.52	18.923
85.74	27.148
85.96	23.085
86.18	14.367
86.4	2.528
86.62	21.545
86.84	19.934
87.06	5.895
87.28	26.079
87.5	22.306
87.72	26.367
87.94	18.391
88.16	7.305
88.38	17.682
88.6	21.473
88.82	5.123
89.04	27.361
89.26	26.504
89.48	17.608
89.7	33.753
89.92	18.528
