Measurement: Powder, Xray Data XY Processed
Mineral: Gadolinite-(Y)
Rruff sample: R070340
Ideal chemistry: Fe^2+^Be_2_Y^3+^_2_(SiO_4_)_2_O_2_
Locality: Ytterøya Mine, Røvika, Ytterøya (island), Levanger, Nord-Trøndelag, Norway
Source: Michael Scott
Description: Black vitreous, metamict massive, a portion of the sample was heated, and is recorded under R080129.
Diffraction sample description: Powder
x	intensity
5	0
5.22	12.7474
5.44	8.41079
5.66	15.765
5.88	13.3538
6.1	1.28244
6.32	28.5713
6.54	17.5509
6.76	13.3246
6.98	21.6896
7.2	20.3422
7.42	3.90015
7.64	10.5782
7.86	7.34585
8.08	17.8912
8.3	13.1511
8.52	14.3926
8.74	21.5252
8.96	10.5033
9.18	5.62263
9.4	10.7262
9.62	20.3957
9.84	18.3525
10.06	17.3631
10.28	16.4572
10.5	3.53262
10.72	15.1824
10.94	10.3096
11.16	12.5184
11.38	2.56781
11.6	12.2381
11.82	12.5795
12.04	2.56344
12.26	13.4992
12.48	18.3964
12.7	9.26332
12.92	17.4136
13.14	19.1527
13.36	0.194244
13.58	14.117
13.8	6.4366
14.02	16.1688
14.24	11.6635
14.46	14.5348
14.68	13.3881
14.9	2.46672
15.12	26.5092
15.34	7.04789
15.56	7.99726
15.78	24.5907
16	0.954231
16.22	25.6469
16.44	21.5144
16.66	8.2932
16.88	25.2788
17.1	3.15522
17.32	21.0467
17.54	28.5604
17.76	23.0579
17.98	22.9221
18.2	16.479
18.42	1.84737
18.64	13.5434
18.86	1.48873
19.08	20.4435
19.3	13.2374
19.52	22.9423
19.74	26.4552
19.96	17.6201
20.18	2.74838
20.4	15.0772
20.62	9.69754
20.84	10.5763
21.06	17.2385
21.28	19.7688
21.5	21.19
21.72	9.58863
21.94	18.5632
22.16	21.9418
22.38	34.322
22.6	27.9177
22.82	9.98007
23.04	3.34574
23.26	12.799
23.48	3.64463
23.7	12.8886
23.92	24.3847
24.14	14.0292
24.36	16.2085
24.58	27.9419
24.8	10.2554
25.02	23.3799
25.24	30.7197
25.46	12.7754
25.68	28.5588
25.9	26.5006
26.12	25.082
26.34	11.458
26.56	19.5399
26.78	9.03346
27	7.57951
27.22	10.1051
27.44	16.8308
27.66	18.0814
27.88	11.8709
28.1	0.243736
28.32	1.69832
28.54	24.1215
28.76	19.5476
28.98	23.0756
29.2	35.9775
29.42	8.81513
29.64	3.35861
29.86	10.6091
30.08	19.3472
30.3	20.0626
30.52	5.97316
30.74	8.38682
30.96	8.46192
31.18	0.882698
31.4	1.57114
31.62	15.231
31.84	10.0827
32.06	12.3125
32.28	35.8873
32.5	12.445
32.72	2.24081
32.94	20.7863
33.16	14.183
33.38	20.6401
33.6	6.84286
33.82	9.68736
34.04	3.63437
34.26	0.037636
34.48	12.9362
34.7	12.0124
34.92	15.6673
35.14	9.22938
35.36	20.4089
35.58	4.44702
35.8	15.2976
36.02	15.5365
36.24	13.7324
36.46	25.582
36.68	1.47936
36.9	25.1883
37.12	19.1867
37.34	8.61623
37.56	28.554
37.78	6.00273
38	14.1532
38.22	18.0254
38.44	0.588528
38.66	8.3913
38.88	14.0337
39.1	6.2586
39.32	22.0013
39.54	2.90829
39.76	24.8001
39.98	20.6149
40.2	5.9839
40.42	29.2624
40.64	15.9519
40.86	12.241
41.08	0.392399
41.3	26.3302
41.52	1.67055
41.74	17.4117
41.96	2.36041
42.18	0.806686
42.4	9.43486
42.62	14.3403
42.84	16.9227
43.06	10.693
43.28	17.1688
43.5	36.8294
43.72	27.9338
43.94	9.06142
44.16	5.39073
44.38	12.3373
44.6	19.3796
44.82	0.582832
45.04	27.2754
45.26	18.2912
45.48	25.2668
45.7	2.51024
45.92	4.39222
46.14	26.8637
46.36	8.38377
46.58	33.0006
46.8	13.7651
47.02	14.7298
47.24	23.8686
47.46	18.2452
47.68	7.20031
47.9	8.63351
48.12	21.4733
48.34	13.0428
48.56	15.7893
48.78	5.72433
49	14.8711
49.22	4.70973
49.44	8.28977
49.66	17.3595
49.88	11.6697
50.1	2.15751
50.32	6.6687
50.54	18.6091
50.76	13.968
50.98	8.59314
51.2	20.7335
51.42	12.5826
51.64	9.86446
51.86	11.0511
52.08	21.1272
52.3	6.02987
52.52	14.5901
52.74	8.31198
52.96	15.3961
53.18	7.08753
53.4	2.62517
53.62	15.1069
53.84	21.5179
54.06	6.50808
54.28	8.47133
54.5	10.1222
54.72	8.50976
54.94	17.8975
55.16	7.00217
55.38	14.3357
55.6	5.21565
55.82	26.7381
56.04	13.7362
56.26	17.2723
56.48	6.30513
56.7	34.4115
56.92	7.95644
57.14	13.9255
57.36	18.8745
57.58	14.7926
57.8	23.378
58.02	17.4922
58.24	25.4878
58.46	1.47239
58.68	8.06809
58.9	8.68419
59.12	11.7049
59.34	1.9117
59.56	20.4137
59.78	4.58344
60	9.16112
60.22	6.75074
60.44	1.92839
60.66	23.5893
60.88	2.60165
61.1	10.4767
61.32	1.31436
61.54	13.4141
61.76	15.3708
61.98	18.5133
62.2	4.45171
62.42	3.11897
62.64	0.615078
62.86	16.6409
63.08	19.2606
63.3	22.7333
63.52	1.53564
63.74	8.83473
63.96	10.6675
64.18	13.7491
64.4	21.0075
64.62	14.105
64.84	8.72313
65.06	22.9322
65.28	9.63515
65.5	24.4238
65.72	13.481
65.94	16.525
66.16	25.431
66.38	7.3129
66.6	14.7392
66.82	7.26918
67.04	16.8273
67.26	18.2462
67.48	6.57816
67.7	6.0225
67.92	20.1574
68.14	4.67237
68.36	28.2697
68.58	11.5206
68.8	11.4028
69.02	16.176
69.24	0.984497
69.46	15.2673
69.68	14.3587
69.9	14.0703
70.12	2.9029
70.34	19.6723
70.56	25.9117
70.78	16.0633
71	24.1619
71.22	15.4896
71.44	25.2213
71.66	19.4585
71.88	9.56474
72.1	11.1145
72.32	4.01628
72.54	21.9871
72.76	16.2115
72.98	22.8092
73.2	7.05637
73.42	17.0838
73.64	6.34844
73.86	3.27928
74.08	7.40054
74.3	0.228859
74.52	3.88382
74.74	11.0038
74.96	15.8364
75.18	8.85075
75.4	9.90683
75.62	25.983
75.84	14.0696
76.06	14.0564
76.28	8.42803
76.5	19.2812
76.72	26.9209
76.94	14.0776
77.16	21.9894
77.38	5.73795
77.6	11.7513
77.82	20.9961
78.04	16.237
78.26	32.5064
78.48	20.7755
78.7	28.4963
78.92	1.01262
79.14	21.3939
79.36	15.977
79.58	11.2636
79.8	16.5521
80.02	22.6974
80.24	10.654
80.46	17.4957
80.68	14.5642
80.9	23.5892
81.12	5.56098
81.34	2.49701
81.56	23.0276
81.78	15.6853
82	11.7077
82.22	10.8708
82.44	0.867245
82.66	12.6375
82.88	5.14022
83.1	16.7495
83.32	11.7052
83.54	9.2397
83.76	11.3065
83.98	0.593334
84.2	3.98396
84.42	13.8191
84.64	12.5615
84.86	16.597
85.08	14.7701
85.3	0.028858
85.52	22.3418
85.74	12.1447
85.96	9.48858
86.18	19.0403
86.4	11.0705
86.62	11.4361
86.84	21.7367
87.06	20.854
87.28	23.4265
87.5	20.6558
87.72	12.4071
87.94	7.73307
88.16	3.56168
88.38	8.86018
88.6	9.79271
88.82	26.5939
89.04	18.1752
89.26	14.337
89.48	11.1681
89.7	9.06458
89.92	10.5561
