Measurement: Powder, Xray Data XY Processed
Mineral: Gadolinite-(Y)
Rruff sample: R080129
Ideal chemistry: Fe^2+^Be_2_Y^3+^_2_(SiO_4_)_2_O_2_
Locality: Ytterøya mine, Røvika, Ytterøya (island), Levanger, Nord-Trøndelag, Norway
Source: Michael Scott
Description: Reddish-brown fragment from metamict sample R070340, after heating at T = 1000 C for 23 hours
Diffraction sample description: Powder
Cell parameters: a: 4.736(2) b: 7.505(2) c: 9.954(2) alpha: 90 beta: 90.11(3) gamma: 90 volume: 353.8(1) crystal system: monoclinic
x	intensity
5	0
5.22	18.3089
5.44	1.57536
5.66	7.99577
5.88	4.73323
6.1	19.1784
6.32	3.48177
6.54	11.957
6.76	9.76511
6.98	11.5951
7.2	11.5808
7.42	4.61913
7.64	13.2048
7.86	14.1831
8.08	2.25757
8.3	24.6014
8.52	2.75775
8.74	9.52992
8.96	13.0378
9.18	9.18235
9.4	4.49943
9.62	34.4887
9.84	12.3377
10.06	21.4385
10.28	7.85503
10.5	14.3725
10.72	12.9495
10.94	23.3718
11.16	20.1237
11.38	8.00558
11.6	18.5501
11.82	17.4663
12.04	26.8228
12.26	1.05265
12.48	22.0411
12.7	5.66275
12.92	28.3901
13.14	25.9205
13.36	5.28362
13.58	15.3417
13.8	7.30513
14.02	21.6256
14.24	9.17923
14.46	27.6584
14.68	8.87856
14.9	34.3083
15.12	16.3295
15.34	28.0749
15.56	6.04849
15.78	23.281
16	10.1564
16.22	16.7652
16.44	15.7844
16.66	14.8066
16.88	8.51038
17.1	22.8883
17.32	13.2339
17.54	8.05107
17.76	20.3038
17.98	21.6904
18.2	6.6675
18.42	6.13523
18.64	76.8264
18.86	27.6837
19.08	16.7151
19.3	17.4368
19.52	35.5186
19.74	17.274
19.96	23.3302
20.18	6.08971
20.4	10.8882
20.62	8.79294
20.84	18.7906
21.06	2.8185
21.28	27.0534
21.5	25.6404
21.72	11.4168
21.94	18.3762
22.16	15.4797
22.38	1.57148
22.6	16.1467
22.82	3.7355
23.04	0.905853
23.26	22.4079
23.48	15.5396
23.7	19.6063
23.92	7.25777
24.14	5.62401
24.36	30.0384
24.58	4.69604
24.8	20.005
25.02	9.79037
25.24	40.558
25.46	24.3202
25.68	11.6804
25.9	37.0961
26.12	9.11195
26.34	13.8134
26.56	9.97304
26.78	19.6218
27	17.5872
27.22	15.436
27.44	16.6397
27.66	13.8405
27.88	10.5536
28.1	7.0739
28.32	17.1479
28.54	79.7337
28.76	13.5643
28.98	13.3408
29.2	29.1503
29.42	32.7311
29.64	33.7251
29.86	6.27682
30.08	19.4301
30.3	68.4618
30.52	24.7115
30.74	15.5029
30.96	11.071
31.18	22.1395
31.4	24.5859
31.62	105.246
31.84	32.7793
32.06	8.97461
32.28	13.1528
32.5	11.8174
32.72	10.8702
32.94	7.5308
33.16	7.69957
33.38	1.09621
33.6	15.7658
33.82	5.17964
34.04	17.8884
34.26	8.09502
34.48	5.22508
34.7	9.68523
34.92	54.893
35.14	68.793
35.36	28.0641
35.58	10.2737
35.8	22.7783
36.02	10.555
36.24	14.8091
36.46	10.6621
36.68	10.4927
36.9	14.8907
37.12	7.46115
37.34	2.4353
37.56	11.0172
37.78	19.3625
38	21.8828
38.22	21.3136
38.44	20.7006
38.66	15.9419
38.88	17.4504
39.1	17.0131
39.32	14.7365
39.54	12.2447
39.76	49.4964
39.98	17.9638
40.2	34.986
40.42	6.14936
40.64	31.8997
40.86	11.9117
41.08	33.4838
41.3	4.8398
41.52	0.351803
41.74	24.5674
41.96	4.98219
42.18	21.3909
42.4	5.22893
42.62	22.0002
42.84	14.3339
43.06	10.561
43.28	16.8835
43.5	5.80065
43.72	0.757023
43.94	28.9219
44.16	9.97173
44.38	6.47101
44.6	22.2239
44.82	37.5316
45.04	20.9337
45.26	28.5542
45.48	27.7375
45.7	6.25522
45.92	20.8006
46.14	19.654
46.36	17.2462
46.58	6.43276
46.8	12.9955
47.02	13.799
47.24	12.1195
47.46	18.3682
47.68	12.6412
47.9	9.08351
48.12	1.35862
48.34	22.8382
48.56	22.865
48.78	38.896
49	15.5922
49.22	31.9299
49.44	14.0556
49.66	0.554653
49.88	0.665119
50.1	2.97893
50.32	12.0523
50.54	10.2245
50.76	12.0371
50.98	12.8265
51.2	18.3682
51.42	11.6839
51.64	17.7822
51.86	18.6222
52.08	9.2353
52.3	10.8894
52.52	10.0529
52.74	9.51321
52.96	20.6135
53.18	17.0915
53.4	10.2001
53.62	7.66024
53.84	1.53452
54.06	4.54269
54.28	13.3393
54.5	17.083
54.72	17.8001
54.94	5.77921
55.16	20.1016
55.38	15.2737
55.6	22.5583
55.82	23.5655
56.04	16.0464
56.26	5.12747
56.48	13.4852
56.7	10.2705
56.92	24.367
57.14	8.05292
57.36	1.3762
57.58	6.13302
57.8	0.494148
58.02	20.4001
58.24	6.95744
58.46	6.53703
58.68	11.5364
58.9	7.07169
59.12	16.3519
59.34	14.4746
59.56	5.71735
59.78	12.1478
60	9.02984
60.22	10.4405
60.44	8.77316
60.66	13.3313
60.88	17.2812
61.1	6.35478
61.32	20.1696
61.54	13.1823
61.76	5.08012
61.98	15.1528
62.2	14.217
62.42	1.03218
62.64	14.0197
62.86	18.153
63.08	5.00339
63.3	17.6082
63.52	1.74839
63.74	10.1205
63.96	4.99135
64.18	18.7907
64.4	13.9258
64.62	4.50778
64.84	23.5752
65.06	21.8402
65.28	19.0722
65.5	21.1164
65.72	12.1456
65.94	19.7882
66.16	3.04719
66.38	16.096
66.6	16.4058
66.82	12.6786
67.04	9.10585
67.26	5.72482
67.48	6.70892
67.7	0.650234
67.92	12.2936
68.14	4.44603
68.36	7.37282
68.58	6.82589
68.8	16.5704
69.02	4.98754
69.24	7.0555
69.46	10.3531
69.68	19.356
69.9	11.5093
70.12	7.5416
70.34	13.0136
70.56	9.96298
70.78	11.763
71	7.97781
71.22	5.03109
71.44	8.32185
71.66	8.73998
71.88	5.59718
72.1	11.4017
72.32	2.48277
72.54	6.3228
72.76	3.73115
72.98	16.2178
73.2	4.77681
73.42	14.0929
73.64	7.1352
73.86	12.3582
74.08	11.2596
74.3	3.18831
74.52	6.53436
74.74	12.7375
74.96	14.0441
75.18	16.2838
75.4	17.6798
75.62	9.15507
75.84	1.11953
76.06	16.1323
76.28	8.84393
76.5	7.76244
76.72	6.17721
76.94	9.87665
77.16	15.9006
77.38	10.7339
77.6	1.58332
77.82	13.1407
78.04	15.3318
78.26	7.4689
78.48	6.53366
78.7	14.547
78.92	19.3313
79.14	12.6392
79.36	0.711025
79.58	4.57383
79.8	11.759
80.02	18.2155
80.24	16.0702
80.46	4.95469
80.68	6.96529
80.9	4.95673
81.12	36.1022
81.34	1.20843
81.56	5.00159
81.78	6.85474
82	17.8542
82.22	12.9911
82.44	9.8037
82.66	14.5661
82.88	13.839
83.1	7.86718
83.32	17.1235
83.54	2.66603
83.76	9.76262
83.98	8.75101
84.2	9.97635
84.42	6.20938
84.64	17.4405
84.86	10.4439
85.08	6.585
85.3	3.45673
85.52	5.64508
85.74	1.70486
85.96	12.5022
86.18	17.5965
86.4	4.78787
86.62	8.99204
86.84	7.29609
87.06	15.7764
87.28	4.24724
87.5	15.2315
87.72	7.04059
87.94	5.07296
88.16	0.741869
88.38	7.7069
88.6	4.56879
88.82	12.368
89.04	12.6806
89.26	16.7148
89.48	2.17338
89.7	11.5053
89.92	11.2241
