Measurement: Powder, Xray Data XY Processed
Mineral: Galena
Rruff sample: R060187
Ideal chemistry: Pb^2+^S^2-^
Locality: Polaris mine, Little Cornwallis Island, Northwest Territories, Canada
Source: Lloyd Twaites
Description: Lead-gray metallic cubo-octahedra
Diffraction sample description: Powder
Measured chemistry: Pb_1.00_S_1.00_
Cell parameters: a: 5.9380(3) b: 5.9380(3) c: 5.9380(3) alpha: 90 beta: 90 gamma: 90 volume: 209.37(3) crystal system: cubic
x	intensity
5	0
5.22	6.754
5.44	0.861
5.66	9.694
5.88	9.839
6.1	5.205
6.32	6.714
6.54	9.079
6.76	8.75
6.98	9.564
7.2	0.172
7.42	2.653
7.64	4.163
7.86	6.518
8.08	1.081
8.3	2.089
8.52	3.15
8.74	5.029
8.96	3.721
9.18	0.57
9.4	5.21
9.62	5.066
9.84	1.96
10.06	0.915
10.28	1.908
10.5	0.099
10.72	3.951
10.94	8.01
11.16	5.208
11.38	6.438
11.6	0.551
11.82	12.637
12.04	1.628
12.26	3.681
12.48	3.671
12.7	1.606
12.92	3.542
13.14	1.607
13.36	1.578
13.58	2.43
13.8	2.205
14.02	2.195
14.24	0.198
14.46	2.199
14.68	0.343
14.9	1.288
15.12	6.383
15.34	3.573
15.56	5.543
15.78	3.547
16	0.627
16.22	10.733
16.44	0.909
16.66	1.983
16.88	4.995
17.1	3.065
17.32	3.091
17.54	6.016
17.76	5.944
17.98	8.939
18.2	2.057
18.42	6.074
18.64	5.916
18.86	2.833
19.08	1.763
19.3	5.774
19.52	4.571
19.74	1.529
19.96	0.596
20.18	3.607
20.4	2.602
20.62	1.432
20.84	0.552
21.06	4.46
21.28	0.528
21.5	4.629
21.72	3.649
21.94	0.292
22.16	1.692
22.38	1.674
22.6	4.602
22.82	4.719
23.04	3.694
23.26	0.659
23.48	6.513
23.7	3.374
23.92	4.22
24.14	5.969
24.36	4.699
24.58	0.642
24.8	1.121
25.02	3.888
25.24	3.48
25.46	5.309
25.68	13.274
25.9	26.204
26.12	146.06
26.34	5.065
26.56	6.568
26.78	6.908
27	4.138
27.22	2.324
27.44	2.604
27.66	0.983
27.88	1.018
28.1	0.12
28.32	1.815
28.54	4.68
28.76	1.505
28.98	5.866
29.2	0.493
29.42	1.206
29.64	0.046
29.86	2.92
30.08	97.617
30.3	93.841
30.52	12.961
30.74	1.184
30.96	0.426
31.18	1.672
31.4	3.014
31.62	2.319
31.84	2.61
32.06	2.876
32.28	2.047
32.5	8.291
32.72	0.201
32.94	1.324
33.16	0.706
33.38	3.33
33.6	2.4
33.82	10.554
34.04	5.548
34.26	1.645
34.48	7.612
34.7	3.567
34.92	7.426
35.14	3.418
35.36	3.509
35.58	3.484
35.8	3.544
36.02	0.577
36.24	3.41
36.46	1.449
36.68	2.342
36.9	0.328
37.12	1.318
37.34	1.352
37.56	3.33
37.78	2.212
38	6.303
38.22	3.27
38.44	1.187
38.66	1.151
38.88	4.213
39.1	0.766
39.32	3.417
39.54	3.356
39.76	3.243
39.98	2.393
40.2	4.32
40.42	4.104
40.64	2.117
40.86	4.034
41.08	3.861
41.3	4.589
41.52	2.183
41.74	0.234
41.96	3.483
42.18	1.22
42.4	5.79
42.62	2.594
42.84	15.521
43.06	104.307
43.28	87.567
43.5	15.497
43.72	3.701
43.94	0.043
44.16	7.46
44.38	2.747
44.6	6.979
44.82	1.249
45.04	0.58
45.26	6.758
45.48	0.683
45.7	2.831
45.92	3.088
46.14	5.197
46.36	0.111
46.58	4.905
46.8	3.998
47.02	0.007
47.24	4.984
47.46	3.886
47.68	10.966
47.9	4.987
48.12	5.009
48.34	3.763
48.56	3.823
48.78	3.952
49	0.707
49.22	2.647
49.44	6.415
49.66	2.172
49.88	4.898
50.1	1.44
50.32	8.198
50.54	7.763
50.76	9.683
50.98	84.521
51.2	49.489
51.42	17.674
51.64	2.641
51.86	5.861
52.08	0.025
52.3	2.066
52.52	4.125
52.74	3.155
52.96	1.797
53.18	6.11
53.4	27.128
53.62	44.018
53.84	11.824
54.06	6.006
54.28	5.171
54.5	0.688
54.72	2.884
54.94	3.097
55.16	8.289
55.38	2.462
55.6	1.627
55.82	6.704
56.04	3.65
56.26	2.713
56.48	4.651
56.7	4.581
56.92	1.373
57.14	3.346
57.36	0.652
57.58	2.393
57.8	3.608
58.02	2.679
58.24	6.691
58.46	2.762
58.68	0.159
58.9	1.907
59.12	0.854
59.34	0.865
59.56	2.885
59.78	5.842
60	6.957
60.22	6.708
60.44	5.525
60.66	2.585
60.88	3.545
61.1	0.663
61.32	1.133
61.54	3.928
61.76	4.661
61.98	2.534
62.2	0.399
62.42	11.14
62.64	27.136
62.86	13.215
63.08	1.217
63.3	5.164
63.52	6.328
63.74	0.442
63.96	1.815
64.18	5.016
64.4	4.084
64.62	6.166
64.84	4.38
65.06	2.424
65.28	4.407
65.5	3.31
65.72	0.487
65.94	3.295
66.16	0.526
66.38	2.441
66.6	10.512
66.82	0.578
67.04	4.653
67.26	5.544
67.48	0.393
67.7	2.236
67.92	0.949
68.14	0.676
68.36	1.392
68.58	7.039
68.8	19.056
69.02	26.786
69.24	15.214
69.46	2.893
69.68	5.525
69.9	0.3
70.12	5.085
70.34	8.9
70.56	10.818
70.78	11.734
71	48.93
71.22	31.785
71.44	15.862
71.66	3.234
71.88	4.714
72.1	0.704
72.32	1.762
72.54	1.176
72.76	1.373
72.98	4.924
73.2	2.185
73.42	2.124
73.64	10.299
73.86	4.438
74.08	0.336
74.3	6.344
74.52	3.224
74.74	2.379
74.96	4.336
75.18	1.344
75.4	0.455
75.62	1.568
75.84	6.619
76.06	5.473
76.28	7.405
76.5	0.494
76.72	2.273
76.94	3.065
77.16	0.706
77.38	6.376
77.6	3.998
77.82	1.54
78.04	3.099
78.26	5.749
78.48	5.508
78.7	15.242
78.92	27.915
79.14	28.044
79.36	11.365
79.58	5.562
79.8	2.744
80.02	3.112
80.24	4.526
80.46	0.18
80.68	5.11
80.9	1.461
81.12	2.896
81.34	5.063
81.56	4.929
81.78	6.083
82	1.099
82.22	4.163
82.44	4.205
82.66	2.128
82.88	5.163
83.1	6.013
83.32	1.745
83.54	3.348
83.76	1.105
83.98	0.24
84.2	0.442
84.42	5.258
84.64	10.097
84.86	18.021
85.08	20.031
85.3	9.91
85.52	1.14
85.74	3.4
85.96	6.671
86.18	0.875
86.4	6.199
86.62	0.43
86.84	1.78
87.06	4.986
87.28	1.169
87.5	8.248
87.72	1.396
87.94	2.436
88.16	3.402
88.38	2.409
88.6	4.505
88.82	4.607
89.04	5.564
89.26	2.448
89.48	8.648
89.7	4.844
89.92	7.204
