Measurement: Powder, Xray Data XY Processed
Mineral: Gartrellite
Rruff sample: R060881
Ideal chemistry: Pb^2+^Cu^2+^Fe^3+^(As^5+^O_4_)_2_(OH)H_2_O
Locality: Ashburton Downs, Western Australia
Source: Bob Jenkins
Description: Yellow grainy incrustations
Diffraction sample description: Powder, mixed with quartz
Measured chemistry: Pb_1.00_Cu_1.00_(Fe^3+^_0.77_Cu_0.18_Al_0.04_Zn_0.01_)_Σ=1_((As_0.97_S_0.03_)_Σ=1_O_4_)_2_(OH)_0.87_·H_2_O; trace amounts of P; OH estimated by charge balance, H_2_O by difference
Cell parameters: a: 5.472(5) b: 5.613(6) c: 7.61(2) alpha: 67.3(1) beta: 69.3(1) gamma: 69.57(6) volume: 195.5(4) crystal system: triclinic
x	intensity
5	0
5.22	15.7774
5.44	13.5341
5.66	14.5099
5.88	13.2272
6.1	8.19188
6.32	25.6827
6.54	8.00814
6.76	5.77545
6.98	6.39225
7.2	10.4078
7.42	8.20433
7.64	16.0962
7.86	8.06397
8.08	3.5589
8.3	0.476997
8.52	2.82753
8.74	6.98756
8.96	1.58824
9.18	7.80401
9.4	5.1214
9.62	20.1219
9.84	8.28468
10.06	16.2552
10.28	16.198
10.5	1.67931
10.72	7.50302
10.94	2.06584
11.16	9.36658
11.38	8.36949
11.6	12.2387
11.82	2.20729
12.04	2.40555
12.26	1.58548
12.48	14.7765
12.7	6.70988
12.92	15.2557
13.14	23.23
13.36	3.04434
13.58	10.965
13.8	11.4397
14.02	1.54065
14.24	8.28202
14.46	10.8342
14.68	6.684
14.9	18.583
15.12	5.50239
15.34	13.537
15.56	9.21153
15.78	4.38791
16	11.9247
16.22	16.8778
16.44	3.9743
16.66	9.90446
16.88	9.98089
17.1	9.98212
17.32	2.92088
17.54	9.22964
17.76	1.31988
17.98	2.58181
18.2	2.34116
18.42	18.3033
18.64	23.766
18.86	22.9702
19.08	18.6283
19.3	40.554
19.52	13.7894
19.74	51.1086
19.96	8.57547
20.18	2.55537
20.4	3.62496
20.62	11.2218
20.84	210.805
21.06	17.4368
21.28	17.5656
21.5	18.5282
21.72	14.3294
21.94	6.77885
22.16	0.21623
22.38	7.44308
22.6	16.1269
22.82	4.01857
23.04	6.87445
23.26	8.05295
23.48	7.70589
23.7	2.32296
23.92	3.66007
24.14	8.61463
24.36	3.94985
24.58	12.1482
24.8	26.4913
25.02	26.7609
25.24	7.4331
25.46	11.2902
25.68	2.27489
25.9	9.08777
26.12	6.86014
26.34	4.97792
26.56	81.3702
26.78	96.5487
27	46.2014
27.22	12.3379
27.44	23.4663
27.66	21.6981
27.88	23.8881
28.1	8.66065
28.32	9.52493
28.54	10.1921
28.76	6.55664
28.98	18.7155
29.2	0.698099
29.42	2.39353
29.64	3.98152
29.86	11.8814
30.08	12.2378
30.3	67.5332
30.52	19.801
30.74	19.8178
30.96	25.0954
31.18	24.2491
31.4	19.605
31.62	5.11393
31.84	2.76878
32.06	6.12822
32.28	18.4429
32.5	6.43321
32.72	19.6813
32.94	14.5961
33.16	34.3376
33.38	15.0537
33.6	7.9579
33.82	4.63179
34.04	10.8392
34.26	8.06033
34.48	23.6293
34.7	8.28202
34.92	4.00335
35.14	13.006
35.36	10.6153
35.58	14.8874
35.8	40.4656
36.02	20.4128
36.24	12.1192
36.46	12.878
36.68	25.2904
36.9	13.4299
37.12	0.561424
37.34	9.48338
37.56	1.21988
37.78	1.08059
38	9.14852
38.22	13.789
38.44	4.50138
38.66	7.53393
38.88	8.27801
39.1	2.45097
39.32	10.763
39.54	26.7746
39.76	3.71756
39.98	14.7913
40.2	11.5953
40.42	15.6484
40.64	0.860098
40.86	10.1461
41.08	17.0445
41.3	12.3667
41.52	9.78156
41.74	19.7111
41.96	9.07637
42.18	0.722694
42.4	21.2373
42.62	16.7901
42.84	4.92359
43.06	5.07842
43.28	12.1319
43.5	4.4525
43.72	7.38033
43.94	5.40973
44.16	12.7588
44.38	11.5601
44.6	14.5785
44.82	15.5592
45.04	9.72686
45.26	7.08878
45.48	16.6001
45.7	4.93893
45.92	30.9789
46.14	7.45655
46.36	0.487957
46.58	7.67047
46.8	2.22836
47.02	4.63943
47.24	0.522911
47.46	9.00465
47.68	0.604538
47.9	6.1924
48.12	9.71565
48.34	7.36368
48.56	17.2696
48.78	9.42966
49	16.3792
49.22	18.1354
49.44	14.1197
49.66	1.47417
49.88	16.6877
50.1	34.9355
50.32	41.0941
50.54	6.562
50.76	6.45569
50.98	8.14305
51.2	15.7353
51.42	1.54419
51.64	1.68806
51.86	8.81016
52.08	12.648
52.3	12.2203
52.52	4.96635
52.74	16.6011
52.96	11.3004
53.18	11.9812
53.4	8.72208
53.62	3.74097
53.84	4.60227
54.06	8.62299
54.28	7.84469
54.5	6.99993
54.72	12.3946
54.94	21.5172
55.16	3.9932
55.38	10.5729
55.6	8.75182
55.82	9.98655
56.04	7.07674
56.26	1.85987
56.48	4.37672
56.7	10.8864
56.92	9.94816
57.14	2.8785
57.36	1.76987
57.58	11.3291
57.8	9.76242
58.02	10.0856
58.24	17.4363
58.46	0.803322
58.68	10.9086
58.9	5.23306
59.12	9.56639
59.34	13.6867
59.56	8.72589
59.78	11.815
60	37.7617
60.22	24.2583
60.44	7.02337
60.66	7.96852
60.88	17.5075
61.1	11.4368
61.32	3.67635
61.54	1.82471
61.76	6.4981
61.98	20.6554
62.2	9.78343
62.42	2.79635
62.64	19.9408
62.86	6.23549
63.08	2.44957
63.3	4.90046
63.52	13.43
63.74	6.35049
63.96	2.42434
64.18	8.75864
64.4	4.89197
64.62	4.30347
64.84	11.8033
65.06	5.90681
65.28	12.8655
65.5	0.992577
65.72	8.14286
65.94	14.7509
66.16	7.04745
66.38	10.9269
66.6	13.4573
66.82	8.21997
67.04	14.9642
67.26	5.83755
67.48	14.5538
67.7	23.7448
67.92	26.7806
68.14	53.5053
68.36	39.7276
68.58	15.7326
68.8	2.99553
69.02	6.35572
69.24	5.72744
69.46	7.00228
69.68	2.44446
69.9	14.1605
70.12	13.0636
70.34	3.25141
70.56	1.25798
70.78	1.03313
71	6.99762
71.22	2.23218
71.44	9.48864
71.66	2.7066
71.88	10.641
72.1	13.8128
72.32	6.8184
72.54	14.8233
72.76	10.8656
72.98	4.94915
73.2	7.31666
73.42	3.46833
73.64	10.2224
73.86	6.92238
74.08	1.00225
74.3	13.539
74.52	12.4203
74.74	0.18576
74.96	7.53471
75.18	3.66391
75.4	10.1605
75.62	25.1967
75.84	18.9982
76.06	1.81728
76.28	4.53331
76.5	6.2011
76.72	7.26866
76.94	2.72378
77.16	8.06332
77.38	2.69538
77.6	7.71196
77.82	9.72997
78.04	1.51119
78.26	3.43175
78.48	0.517651
78.7	6.24539
78.92	11.1144
79.14	5.97312
79.36	2.4931
79.58	7.47824
79.8	11.3957
80.02	19.1795
80.24	18.1625
80.46	10.279
80.68	9.1937
80.9	2.20566
81.12	4.52864
81.34	3.99716
81.56	13.1376
81.78	17.3835
82	0.143433
82.22	12.4734
82.44	12.5078
82.66	12.6944
82.88	7.5528
83.1	4.39635
83.32	10.0601
83.54	9.0384
83.76	16.9202
83.98	4.08308
84.2	4.9338
84.42	7.94598
84.64	4.29707
84.86	2.46991
85.08	13.4125
85.3	2.71898
85.52	1.90118
85.74	9.29037
85.96	3.35151
86.18	10.2756
86.4	3.56058
86.62	11.9033
86.84	8.06792
87.06	2.93392
87.28	13.082
87.5	10.3452
87.72	5.42657
87.94	0.598468
88.16	12.8173
88.38	5.0687
88.6	5.84526
88.82	17.4103
89.04	1.88646
89.26	7.99901
89.48	13.5067
89.7	5.04676
89.92	2.93647
