Measurement: Powder, Xray Data XY Processed
Mineral: Gaspeite
Rruff sample: R060366
Ideal chemistry: Ni^2+^CO_3_
Locality: Pilbara Region, Western Australia, Australia
Source: Herb Obodda
Description: Green fine-grained massive coating
Diffraction sample description: Powder
Measured chemistry: (Ni_0.67_Mg_0.30_Ca_0.02_Co_0.01_)_Î£=1_CO_3_
Cell parameters: a: 4.6194(3) b: 4.6194(3) c: 14.855(5) alpha: 90 beta: 90 gamma: 120 volume: 274.52(7) crystal system: hexagonal
x	intensity
5	0
5.22	14.9011
5.44	28.1044
5.66	39.0652
5.88	38.7553
6.1	10.9299
6.32	40.1513
6.54	43.378
6.76	25.69
6.98	7.04051
7.2	33.1134
7.42	4.49286
7.64	17.2431
7.86	16.5561
8.08	15.8273
8.3	49.5696
8.52	13.0874
8.74	9.42383
8.96	26.4914
9.18	19.8303
9.4	12.7312
9.62	4.06714
9.84	12.3899
10.06	42.2967
10.28	10.5574
10.5	17.2006
10.72	6.13007
10.94	18.5534
11.16	6.36076
11.38	0.609558
11.6	38.0057
11.82	8.79378
12.04	30.3919
12.26	14.8402
12.48	29.1018
12.7	4.08676
12.92	30.4229
13.14	30.7447
13.36	21.936
13.58	6.5011
13.8	8.10596
14.02	12.7972
14.24	30.0865
14.46	2.909
14.68	24.09
14.9	8.09093
15.12	42.461
15.34	28.8552
15.56	24.0746
15.78	17.7879
16	26.1596
16.22	22.7148
16.44	2.5385
16.66	18.4306
16.88	27.3174
17.1	33.8129
17.32	22.632
17.54	33.2077
17.76	37.2411
17.98	23.8233
18.2	19.5951
18.42	21.4961
18.64	22.4139
18.86	5.17703
19.08	2.24513
19.3	1.55267
19.52	12.6144
19.74	19.2147
19.96	8.81085
20.18	13.7207
20.4	29.0201
20.62	39.6685
20.84	14.162
21.06	9.20265
21.28	55.1347
21.5	21.2358
21.72	2.42535
21.94	18.5186
22.16	25.9641
22.38	5.29976
22.6	11.5821
22.82	12.0986
23.04	20.81
23.26	15.9973
23.48	32.2421
23.7	4.09851
23.92	32.4523
24.14	48.867
24.36	18.1944
24.58	5.86208
24.8	36.7516
25.02	22.492
25.24	463.16
25.46	105.342
25.68	0.416977
25.9	18.8019
26.12	9.40025
26.34	16.9783
26.56	35.9202
26.78	11.7692
27	3.93968
27.22	23.7439
27.44	14.5145
27.66	12.3394
27.88	7.14299
28.1	29.6946
28.32	28.7884
28.54	7.21439
28.76	14.9156
28.98	30.7643
29.2	25.2355
29.42	27.6682
29.64	39.1612
29.86	14.5148
30.08	18.4896
30.3	14.738
30.52	39.2651
30.74	22.215
30.96	32.6953
31.18	24.9222
31.4	9.52705
31.62	45.8567
31.84	9.55396
32.06	31.0323
32.28	21.3308
32.5	73.9626
32.72	382.923
32.94	1300.59
33.16	194.293
33.38	20.6523
33.6	21.6802
33.82	32.1968
34.04	0.293625
34.26	21.8598
34.48	16.7261
34.7	40.8145
34.92	17.7446
35.14	38.1375
35.36	22.7883
35.58	32.2866
35.8	5.97571
36.02	32.6167
36.24	42.8077
36.46	30.4037
36.68	34.9284
36.9	0.329575
37.12	20.4628
37.34	20.2939
37.56	17.1123
37.78	8.30234
38	22.0155
38.22	32.0758
38.44	15.4286
38.66	7.92191
38.88	118.77
39.1	147.955
39.32	17.2899
39.54	8.42183
39.76	0.991837
39.98	18.5101
40.2	34.7903
40.42	11.704
40.64	15.5949
40.86	33.1665
41.08	25.4536
41.3	17.5515
41.52	22.996
41.74	48.4648
41.96	32.3951
42.18	11.4546
42.4	19.7721
42.62	32.0314
42.84	9.36026
43.06	147.852
43.28	249.51
43.5	51.2292
43.72	17.5773
43.94	5.25406
44.16	38.8809
44.38	50.5278
44.6	29.4522
44.82	15.2572
45.04	22.912
45.26	27.3069
45.48	30.7482
45.7	6.85698
45.92	22.7004
46.14	4.1049
46.36	28.913
46.58	7.60187
46.8	59.1491
47.02	251.02
47.24	81.1718
47.46	4.00348
47.68	37.6534
47.9	16.5339
48.12	14.2823
48.34	10.4938
48.56	11.6477
48.78	3.48064
49	27.7248
49.22	17.0233
49.44	40.4763
49.66	26.3395
49.88	20.3855
50.1	28.6628
50.32	34.6917
50.54	18.6055
50.76	5.97093
50.98	14.4532
51.2	23.9811
51.42	15.8214
51.64	33.9897
51.86	111.395
52.08	69.1182
52.3	42.2038
52.52	19.9493
52.74	4.85055
52.96	28.2332
53.18	1.53496
53.4	6.63797
53.62	15.8657
53.84	41.9221
54.06	100.862
54.28	325.054
54.5	211.48
54.72	77.6664
54.94	17.9371
55.16	7.47887
55.38	12.761
55.6	24.441
55.82	8.90622
56.04	11.4682
56.26	37.3245
56.48	15.5352
56.7	7.30876
56.92	14.8309
57.14	30.1439
57.36	9.28969
57.58	11.6773
57.8	18.504
58.02	6.90051
58.24	16.7124
58.46	18.5505
58.68	20.6912
58.9	16.7312
59.12	19.4328
59.34	8.16652
59.56	34.3001
59.78	16.2202
60	12.9712
60.22	35.8137
60.44	24.1772
60.66	13.2305
60.88	11.3976
61.1	4.05595
61.32	18.5342
61.54	22.8628
61.76	15.374
61.98	24.8284
62.2	9.62831
62.42	36.5252
62.64	80.0059
62.86	76.0437
63.08	26.4364
63.3	14.7557
63.52	21.393
63.74	26.715
63.96	29.5479
64.18	11.4706
64.4	24.5331
64.62	5.61787
64.84	34.9716
65.06	30.5202
65.28	25.9602
65.5	11.2855
65.72	10.1242
65.94	16.3244
66.16	22.2239
66.38	19.6408
66.6	46.3473
66.82	55.7942
67.04	28.941
67.26	17.4067
67.48	28.5325
67.7	38.6256
67.92	20.8439
68.14	1.31337
68.36	19.5266
68.58	16.3158
68.8	23.2572
69.02	29.6658
69.24	25.1677
69.46	20.1807
69.68	29.1616
69.9	21.4547
70.12	38.7382
70.34	60.159
70.56	70.5339
70.78	59.584
71	6.27161
71.22	1.08243
71.44	21.5192
71.66	6.84253
71.88	37.2342
72.1	2.64005
72.32	4.2046
72.54	24.0093
72.76	17.6608
72.98	24.2721
73.2	27.3837
73.42	23.835
73.64	19.4311
73.86	12.4852
74.08	51.6052
74.3	16.6064
74.52	16.9461
74.74	6.66562
74.96	3.62077
75.18	17.4531
75.4	31.1923
75.62	11.3894
75.84	19.3147
76.06	31.7514
76.28	50.5812
76.5	9.67584
76.72	18.518
76.94	11.8866
77.16	24.4749
77.38	29.2052
77.6	18.0251
77.82	16.2354
78.04	6.56284
78.26	11.5306
78.48	34.9973
78.7	10.2672
78.92	23.7562
79.14	7.5256
79.36	29.3934
79.58	14.3501
79.8	12.9442
80.02	22.7576
80.24	29.605
80.46	2.37602
80.68	22.5078
80.9	14.4134
81.12	29.248
81.34	23.5494
81.56	11.4544
81.78	14.618
82	13.8001
82.22	31.254
82.44	32.9064
82.66	10.157
82.88	3.67165
83.1	15.2537
83.32	0.898712
83.54	11.1589
83.76	29.065
83.98	9.59324
84.2	3.7133
84.42	17.2714
84.64	22.4043
84.86	8.42992
85.08	27.7973
85.3	28.556
85.52	18.6354
85.74	37.7413
85.96	2.63084
86.18	9.43338
86.4	3.67655
86.62	18.5936
86.84	23.7643
87.06	18.9638
87.28	3.06947
87.5	18.6571
87.72	13.984
87.94	25.2627
88.16	28.9199
88.38	13.5311
88.6	11.8973
88.82	35.0333
89.04	8.34918
89.26	38.6561
89.48	18.3462
89.7	17.7115
89.92	8.37409
