Measurement: Powder, Xray Data XY Processed
Mineral: Gaspeite
Rruff sample: R040157
Ideal chemistry: Ni^2+^CO_3_
Locality: Lemieux Township, Gaspe Nord County, Gaspe Peninsula, Quebec, Canada
Source: University of Arizona Mineral Museum
Description: Green massive
Diffraction sample description: Powder
Measured chemistry: (Ni_0.54_Mg_0.31_Fe_0.15_Ca_0.01_Co_0.01_)C_1.00_O_3_; = the gray bands. Light grey bands are also gaspeite: (Ni_0.57_Mg_0.41_Fe_0.08_)C_0.97_O_3_; Dark grey bands, magnesite: (Mg_0.98_Fe_0.04_Ni_0.03_)C_0.97_O_3_
Cell parameters: a: 4.6223(4) b: 4.6223(4) c: 14.915(9) alpha: 90. beta: 90. gamma: 120. volume: 275.9(2) crystal system: hexagonal
x	intensity
5	0
5.22	17.393
5.44	39.3826
5.66	14.2079
5.88	43.0183
6.1	13.5677
6.32	8.56569
6.54	9.40565
6.76	6.42372
6.98	39.4644
7.2	22.7432
7.42	41.0395
7.64	36.7391
7.86	28.2343
8.08	8.54448
8.3	28.1561
8.52	26.0484
8.74	23.0933
8.96	10.7721
9.18	40.388
9.4	32.0397
9.62	12.696
9.84	6.33452
10.06	12.9793
10.28	9.66322
10.5	4.98239
10.72	10.741
10.94	15.2886
11.16	15.798
11.38	18.6722
11.6	24.9828
11.82	41.9448
12.04	35.3525
12.26	5.99632
12.48	14.9371
12.7	33.2432
12.92	2.46336
13.14	7.75403
13.36	28.1461
13.58	10.5264
13.8	23.9547
14.02	43.4038
14.24	10.4639
14.46	13.5928
14.68	33.3042
14.9	20.5303
15.12	21.4324
15.34	2.31607
15.56	34.578
15.78	28.1917
16	15.2958
16.22	26.1261
16.44	24.2824
16.66	21.4005
16.88	25.6549
17.1	30.8328
17.32	23.3754
17.54	20.4801
17.76	36.025
17.98	23.2171
18.2	10.2532
18.42	12.0129
18.64	13.4762
18.86	35.4712
19.08	26.8272
19.3	15.5775
19.52	0.821419
19.74	7.8012
19.96	26.118
20.18	11.9548
20.4	12.0687
20.62	12.2078
20.84	14.04
21.06	16.8361
21.28	1.54028
21.5	11.2512
21.72	31.3735
21.94	12.246
22.16	23.0149
22.38	16.9135
22.6	51.755
22.82	22.4044
23.04	12.5098
23.26	12.5157
23.48	19.0915
23.7	14.8172
23.92	16.941
24.14	32.8782
24.36	34.3382
24.58	18.1124
24.8	9.37054
25.02	17.9831
25.24	136.166
25.46	64.7651
25.68	15.7633
25.9	5.80671
26.12	12.3457
26.34	31.7524
26.56	10.9381
26.78	28.5872
27	14.325
27.22	38.0839
27.44	21.9547
27.66	1.45586
27.88	34.6959
28.1	36.3909
28.32	22.1569
28.54	5.02863
28.76	27.5168
28.98	26.2498
29.2	7.74972
29.42	24.1792
29.64	18.4289
29.86	22.1239
30.08	16.4044
30.3	7.1127
30.52	21.2151
30.74	34.5668
30.96	14.0664
31.18	39.759
31.4	17.5517
31.62	11.6081
31.84	10.5873
32.06	23.5316
32.28	38.0533
32.5	70.7757
32.72	475.135
32.94	1337.91
33.16	137.517
33.38	12.1044
33.6	7.2785
33.82	37.1338
34.04	8.05307
34.26	18.1677
34.48	8.33386
34.7	24.8664
34.92	18.3888
35.14	20.8287
35.36	18.9545
35.58	22.3809
35.8	36.8466
36.02	36.3495
36.24	26.2566
36.46	15.9838
36.68	14.8396
36.9	39.6952
37.12	45.9713
37.34	24.688
37.56	19.0906
37.78	5.84769
38	9.16922
38.22	37.0694
38.44	13.6585
38.66	40.8436
38.88	29.3378
39.1	172.28
39.32	18.0123
39.54	9.0228
39.76	16.7399
39.98	28.8418
40.2	11.1801
40.42	27.5355
40.64	4.79097
40.86	32.7273
41.08	20.4825
41.3	52.3642
41.52	27.0101
41.74	17.7543
41.96	6.89932
42.18	21.313
42.4	11.6871
42.62	28.9797
42.84	51.3629
43.06	132.218
43.28	233.988
43.5	50.1174
43.72	38.3677
43.94	11.6086
44.16	20.9077
44.38	1.5733
44.6	17.9748
44.82	0.84967
45.04	27.3724
45.26	22.6444
45.48	41.9324
45.7	17.662
45.92	12.6838
46.14	10.6521
46.36	15.5468
46.58	24.2028
46.8	32.148
47.02	113.273
47.24	98.5562
47.46	17.8299
47.68	9.4492
47.9	20.357
48.12	6.86667
48.34	28.6129
48.56	22.5893
48.78	35.7369
49	3.3979
49.22	37.9998
49.44	19.0119
49.66	23.2111
49.88	21.4814
50.1	22.0188
50.32	23.3223
50.54	25.9806
50.76	31.0701
50.98	2.74519
51.2	11.2338
51.42	8.24347
51.64	26.9097
51.86	23.9409
52.08	72.7066
52.3	24.1688
52.52	28.9109
52.74	5.3699
52.96	27.2102
53.18	3.233
53.4	2.5282
53.62	8.65506
53.84	57.4863
54.06	120.823
54.28	301.967
54.5	306.021
54.72	105.971
54.94	30.3776
55.16	29.2647
55.38	14.8579
55.6	28.9214
55.82	11.2418
56.04	29.4976
56.26	20.7185
56.48	30.1057
56.7	32.8366
56.92	19.2302
57.14	13.191
57.36	20.1825
57.58	14.3471
57.8	12.8795
58.02	6.61523
58.24	14.6983
58.46	10.0935
58.68	44.9068
58.9	18.6474
59.12	32.4131
59.34	28.8455
59.56	12.2889
59.78	27.2447
60	18.3118
60.22	20.4142
60.44	19.3178
60.66	33.6244
60.88	21.0838
61.1	12.8993
61.32	4.40196
61.54	20.9769
61.76	22.8206
61.98	11.408
62.2	18.0221
62.42	49.9884
62.64	41.9948
62.86	71.4645
63.08	51.4539
63.3	21.2433
63.52	24.2184
63.74	15.2371
63.96	15.4988
64.18	23.713
64.4	9.49629
64.62	21.6717
64.84	3.94414
65.06	19.4457
65.28	35.1833
65.5	10.1964
65.72	24.2053
65.94	5.27319
66.16	18.3165
66.38	17.8146
66.6	42.0692
66.82	106.268
67.04	53.2073
67.26	14.0611
67.48	43.2504
67.7	20.7416
67.92	21.8521
68.14	18.8239
68.36	28.6634
68.58	24.4081
68.8	33.0633
69.02	27.1385
69.24	23.1941
69.46	11.7776
69.68	2.55254
69.9	5.37688
70.12	11.0072
70.34	24.2457
70.56	48.6571
70.78	54.2325
71	20.6179
71.22	16.4355
71.44	2.59154
71.66	26.4477
71.88	15.3393
72.1	31.8537
72.32	0.5867
72.54	16.469
72.76	27.8131
72.98	10.2492
73.2	45.3606
73.42	12.4578
73.64	13.796
73.86	9.25902
74.08	31.8187
74.3	31.5839
74.52	23.3996
74.74	7.90166
74.96	16.3584
75.18	1.46143
75.4	17.7371
75.62	19.1528
75.84	19.0098
76.06	25.3869
76.28	16.1296
76.5	23.9148
76.72	19.4253
76.94	8.36931
77.16	19.8291
77.38	41.104
77.6	28.1264
77.82	25.8776
78.04	45.2416
78.26	23.6294
78.48	12.0859
78.7	16.1834
78.92	24.6552
79.14	14.1437
79.36	30.0589
79.58	3.57631
79.8	31.4248
80.02	11.852
80.24	56.4194
80.46	37.5634
80.68	20.9633
80.9	7.38521
81.12	19.3103
81.34	26.2282
81.56	28.3021
81.78	26.3385
82	31.5197
82.22	34.389
82.44	30.1671
82.66	16.5537
82.88	31.885
83.1	13.1406
83.32	21.7097
83.54	14.4414
83.76	18.9931
83.98	15.2613
84.2	10.0971
84.42	10.0863
84.64	3.15663
84.86	17.4355
85.08	11.7802
85.3	16.991
85.52	38.4127
85.74	16.6022
85.96	1.64931
86.18	9.02667
86.4	28.4007
86.62	23.7804
86.84	14.1955
87.06	3.01363
87.28	14.2231
87.5	30.4864
87.72	27.3476
87.94	2.48631
88.16	9.81958
88.38	15.7371
88.6	8.78542
88.82	22.7726
89.04	9.72179
89.26	6.06576
89.48	11.7748
89.7	22.7702
89.92	10.1053
