Measurement: Powder, Xray Data XY Processed
Mineral: Gaylussite
Rruff sample: R040146
Ideal chemistry: Na_2_Ca(CO_3_)_2_5H_2_O
Locality: Searles Lake, Trona, San Bernardino County, California, USA
Source: University of Arizona Mineral Museum
Description: Colorless crystal fragments
Diffraction sample description: Powder
Measured chemistry: Na_2.00_Ca_1.00_(C_1.00_O_3_)_2_Â·5H_2_O
Cell parameters: a: 14.365(2) b: 7.7840(2) c: 11.2203(8) alpha: 90. beta: 127.810(6) gamma: 90. volume: 991.2(1) crystal system: monoclinic
x	intensity
5	0
5.22	14.3104
5.44	4.31847
5.66	12.2854
5.88	0.396979
6.1	11.0867
6.32	1.50675
6.54	0.299889
6.76	6.44666
6.98	4.17738
7.2	1.79683
7.42	8.39029
7.64	7.9406
7.86	12.5431
8.08	2.85089
8.3	0.304512
8.52	2.78282
8.74	8.0114
8.96	6.35432
9.18	8.32055
9.4	9.22528
9.62	0.747988
9.84	11.3974
10.06	12.7825
10.28	7.89877
10.5	3.87934
10.72	10.9932
10.94	11.164
11.16	11.3471
11.38	4.51338
11.6	2.78029
11.82	2.14003
12.04	9.27669
12.26	2.2907
12.48	9.11711
12.7	8.06398
12.92	0.002858
13.14	12.9133
13.36	0.815293
13.58	5.21515
13.8	54.1587
14.02	113.294
14.24	12.1522
14.46	6.25731
14.68	0.683345
14.9	1.47048
15.12	3.60102
15.34	4.78165
15.56	6.17504
15.78	31.2061
16	5.15569
16.22	31.5878
16.44	5.50528
16.66	10.89
16.88	2.11275
17.1	5.30743
17.32	1.45909
17.54	8.805
17.76	9.07015
17.98	0.099951
18.2	3.12043
18.42	7.14097
18.64	6.85715
18.86	4.74949
19.08	5.54697
19.3	7.38035
19.52	8.60905
19.74	37.5651
19.96	2.47656
20.18	90.452
20.4	4.35241
20.62	1.64856
20.84	5.42768
21.06	3.40593
21.28	3.48883
21.5	4.48444
21.72	6.48944
21.94	5.19416
22.16	2.31497
22.38	9.36728
22.6	43.2992
22.82	5.41362
23.04	5.55572
23.26	2.79438
23.48	7.01774
23.7	4.25892
23.92	1.37871
24.14	2.59607
24.36	0.432269
24.58	1.53101
24.8	6.90572
25.02	38.6149
25.24	3.40603
25.46	1.07331
25.68	2.90526
25.9	4.38507
26.12	30.0901
26.34	10.7764
26.56	3.29549
26.78	1.11919
27	43.2823
27.22	2.79893
27.44	2.59682
27.66	8.38953
27.88	397.609
28.1	7.78564
28.32	114.834
28.54	4.9394
28.76	10.9858
28.98	4.11963
29.2	0.404996
29.42	0.566088
29.64	5.70507
29.86	4.96553
30.08	8.22337
30.3	4.64243
30.52	0.336162
30.74	64.2912
30.96	5.53775
31.18	1.80608
31.4	3.82059
31.62	3.43305
31.84	0.892646
32.06	7.72875
32.28	4.17996
32.5	10.616
32.72	18.6686
32.94	740.276
33.16	14.7758
33.38	71.2234
33.6	5.11277
33.82	8.33031
34.04	180.551
34.26	16.9728
34.48	11.2251
34.7	15.575
34.92	3.95605
35.14	10.2371
35.36	4.76301
35.58	9.28519
35.8	44.7343
36.02	9.96109
36.24	11.7303
36.46	6.60355
36.68	10.8627
36.9	0.269318
37.12	1.7626
37.34	14.1633
37.56	5.94416
37.78	16.6425
38	4.33081
38.22	26.4879
38.44	20.2225
38.66	11.0307
38.88	14.7661
39.1	10.6425
39.32	9.57425
39.54	23.9747
39.76	2.03233
39.98	45.1262
40.2	11.3154
40.42	2.08134
40.64	8.12883
40.86	46.7873
41.08	9.91178
41.3	8.0246
41.52	27.9982
41.74	10.8003
41.96	4.52217
42.18	6.08686
42.4	31.1104
42.62	10.9906
42.84	10.0053
43.06	1.05735
43.28	3.85736
43.5	6.84103
43.72	3.03424
43.94	27.2986
44.16	0.409498
44.38	7.47667
44.6	11.9699
44.82	0.069323
45.04	6.48289
45.26	4.74738
45.48	31.806
45.7	26.3637
45.92	6.00364
46.14	2.54866
46.36	3.90304
46.58	3.30759
46.8	9.70636
47.02	8.11815
47.24	67.0073
47.46	71.3673
47.68	30.2481
47.9	49.72
48.12	15.4101
48.34	1.69589
48.56	0.843332
48.78	2.05022
49	10.2202
49.22	13.4265
49.44	24.6976
49.66	7.92811
49.88	24.0892
50.1	13.6549
50.32	14.6987
50.54	8.45731
50.76	3.90429
50.98	12.445
51.2	4.95055
51.42	7.64708
51.64	5.05004
51.86	5.05264
52.08	5.79717
52.3	1.87918
52.52	6.75408
52.74	14.1613
52.96	13.9789
53.18	43.1567
53.4	22.2449
53.62	7.28032
53.84	10.9576
54.06	6.05784
54.28	0.517375
54.5	4.8993
54.72	7.38898
54.94	16.8599
55.16	10.131
55.38	0.663147
55.6	8.60587
55.82	0.64925
56.04	3.73056
56.26	2.74703
56.48	5.91226
56.7	11.878
56.92	6.70541
57.14	8.27322
57.36	13.0628
57.58	5.96892
57.8	3.69843
58.02	5.74133
58.24	8.86022
58.46	3.86023
58.68	5.07044
58.9	4.88605
59.12	9.74148
59.34	9.81849
59.56	5.35165
59.78	1.3167
60	21.6904
60.22	15.4691
60.44	0.489955
60.66	1.30249
60.88	4.3143
61.1	7.02807
61.32	8.90067
61.54	8.84339
61.76	5.86902
61.98	4.31375
62.2	10.0687
62.42	6.20735
62.64	5.73344
62.86	5.91296
63.08	7.99854
63.3	4.07246
63.52	9.27405
63.74	2.43791
63.96	1.51393
64.18	3.69578
64.4	1.94634
64.62	0.998346
64.84	5.93469
65.06	4.6852
65.28	2.75995
65.5	1.88872
65.72	6.04219
65.94	0.346236
66.16	4.401
66.38	0.565288
66.6	3.61836
66.82	6.43675
67.04	4.54797
67.26	0.523833
67.48	3.46022
67.7	3.47352
67.92	6.29757
68.14	2.06411
68.36	0.331035
68.58	1.67334
68.8	4.39221
69.02	10.2307
69.24	2.26547
69.46	5.34906
69.68	0.337426
69.9	7.40758
70.12	3.46898
70.34	2.7967
70.56	1.08282
70.78	16.0079
71	7.14587
71.22	4.39906
71.44	4.49814
71.66	3.4343
71.88	2.21491
72.1	2.19362
72.32	3.03597
72.54	5.02234
72.76	6.94603
72.98	28.8439
73.2	1.86114
73.42	3.49084
73.64	3.4822
73.86	3.35427
74.08	4.35293
74.3	4.37556
74.52	8.47223
74.74	9.79535
74.96	0.871307
75.18	30.8736
75.4	20.971
75.62	6.02576
75.84	4.21772
76.06	5.21388
76.28	3.33074
76.5	1.37069
76.72	0.386602
76.94	6.20643
77.16	4.69189
77.38	0.492208
77.6	1.65428
77.82	8.24653
78.04	14.0828
78.26	1.8666
78.48	6.0277
78.7	2.88777
78.92	2.85233
79.14	4.96814
79.36	0.398502
79.58	0.273314
79.8	1.79389
80.02	6.05305
80.24	4.15693
80.46	4.20921
80.68	1.29307
80.9	5.13452
81.12	2.38181
81.34	9.52077
81.56	10.5344
81.78	2.16758
82	1.87413
82.22	3.83798
82.44	3.72844
82.66	0.357698
82.88	6.55785
83.1	3.71302
83.32	3.71538
83.54	2.56324
83.76	6.54754
83.98	6.44605
84.2	1.29916
84.42	5.73543
84.64	5.83972
84.86	0.818449
85.08	1.8723
85.3	1.92971
85.52	2.77547
85.74	5.17079
85.96	9.11096
86.18	12.0541
86.4	7.21794
86.62	3.10861
86.84	0.225647
87.06	4.41827
87.28	5.52332
87.5	4.91618
87.72	4.03679
87.94	2.2324
88.16	4.05564
88.38	4.1135
88.6	3.09617
88.82	5.97311
89.04	3.09191
89.26	6.71351
89.48	2.57519
89.7	1.94289
89.92	7.25317
