Measurement: Powder, Xray Data XY Processed
Mineral: Gearksutite
Rruff sample: R050657
Ideal chemistry: CaAlF_4_(OH)H_2_O
Locality: Jamestown, Colorado, USA
Source: University of Arizona Mineral Museum
Description: White fragment
Diffraction sample description: Powder
Measured chemistry: (Ca_0.98_Sr_0.02_)Al_1.00_F_4.00_(OH)Â·H_2_O
Cell parameters: a: 4.9358(2) b: 6.8086(3) c: 6.9775(7) alpha: 101.158(4) beta: 94.736(3) gamma: 110.067(7) volume: 213.25(1) crystal system: triclinic
x	intensity
5	0
5.22	13.934
5.44	0.127
5.66	4.063
5.88	5.259
6.1	6.617
6.32	10.181
6.54	5.529
6.76	4.85
6.98	3.238
7.2	1.195
7.42	1.326
7.64	1.607
7.86	2.859
8.08	7.096
8.3	5.283
8.52	4.376
8.74	4.495
8.96	2.572
9.18	1.652
9.4	7.878
9.62	4.743
9.84	5.753
10.06	5.025
10.28	0.245
10.5	8.544
10.72	3.843
10.94	5.04
11.16	1.16
11.38	5.357
11.6	0.73
11.82	6.536
12.04	5.624
12.26	4.767
12.48	3.718
12.7	7.031
12.92	1.949
13.14	35.841
13.36	5.024
13.58	3.052
13.8	2.955
14.02	2.129
14.24	11.331
14.46	1.601
14.68	0.374
14.9	1.715
15.12	2.505
15.34	3.611
15.56	9.008
15.78	7.9
16	0.864
16.22	0.996
16.44	2.851
16.66	3.551
16.88	6.346
17.1	8.48
17.32	2.403
17.54	6.364
17.76	4.277
17.98	1.847
18.2	3.787
18.42	2.547
18.64	6.485
18.86	5.506
19.08	10.489
19.3	26.778
19.52	128.729
19.74	8.802
19.96	1.912
20.18	1.147
20.4	1.542
20.62	6.911
20.84	1.075
21.06	3.249
21.28	3.356
21.5	3.585
21.72	9.418
21.94	8.526
22.16	1.701
22.38	3.723
22.6	3.592
22.82	6.384
23.04	3.349
23.26	11.463
23.48	8.468
23.7	8.632
23.92	8.545
24.14	5.45
24.36	5.037
24.58	4.86
24.8	6.71
25.02	4.701
25.24	59.423
25.46	13.956
25.68	10.537
25.9	4.142
26.12	6.722
26.34	22.465
26.56	16.462
26.78	7.371
27	54.156
27.22	1.045
27.44	2.254
27.66	1.798
27.88	1.119
28.1	21.201
28.32	44.479
28.54	9.647
28.76	29.305
28.98	3.334
29.2	6.5
29.42	3.794
29.64	6.101
29.86	1.354
30.08	1.712
30.3	1.8
30.52	5.843
30.74	2.743
30.96	5.657
31.18	6.134
31.4	6.05
31.62	0.926
31.84	4.698
32.06	1.503
32.28	2.357
32.5	5.346
32.72	9.434
32.94	7.173
33.16	12.125
33.38	6.139
33.6	4.169
33.82	8.214
34.04	21.259
34.26	2.473
34.48	2.644
34.7	1.873
34.92	0.232
35.14	6.766
35.36	0.872
35.58	2.938
35.8	5.968
36.02	5.957
36.24	11.238
36.46	6.406
36.68	10.165
36.9	2.031
37.12	1.097
37.34	3.917
37.56	0.754
37.78	1.772
38	3.642
38.22	7.362
38.44	1.891
38.66	2.367
38.88	5.946
39.1	0.069
39.32	22.748
39.54	52.431
39.76	0.187
39.98	29.391
40.2	13.779
40.42	3.621
40.64	14.516
40.86	1.424
41.08	1.326
41.3	5.462
41.52	5.989
41.74	30.707
41.96	40.508
42.18	6.225
42.4	3.825
42.62	10.98
42.84	25.053
43.06	8.186
43.28	4.799
43.5	36.131
43.72	41.246
43.94	14.616
44.16	2.982
44.38	5.679
44.6	5.861
44.82	13.531
45.04	6.635
45.26	13.573
45.48	8.636
45.7	3.098
45.92	5.598
46.14	10.258
46.36	1.937
46.58	2.632
46.8	1.024
47.02	7.605
47.24	70.027
47.46	5.093
47.68	20.582
47.9	45.674
48.12	13.027
48.34	11.59
48.56	5.126
48.78	0.735
49	10.152
49.22	5.566
49.44	1.94
49.66	8.427
49.88	4.621
50.1	9.582
50.32	10.74
50.54	3.855
50.76	4.702
50.98	1.414
51.2	5.336
51.42	5.272
51.64	3.175
51.86	6.016
52.08	14.846
52.3	10.769
52.52	25.845
52.74	25.696
52.96	7.488
53.18	2.499
53.4	0.415
53.62	6.794
53.84	7.805
54.06	7.966
54.28	6.179
54.5	10.22
54.72	12.133
54.94	19.105
55.16	13.164
55.38	7.483
55.6	1.378
55.82	8.147
56.04	1.915
56.26	1.885
56.48	1.603
56.7	4.251
56.92	8.105
57.14	1.917
57.36	1.629
57.58	8.4
57.8	16.605
58.02	1.573
58.24	14.937
58.46	3.021
58.68	1.117
58.9	1.262
59.12	10.393
59.34	4.694
59.56	0.813
59.78	2.945
60	9.064
60.22	3.939
60.44	5.93
60.66	0.133
60.88	9.389
61.1	5.47
61.32	2.562
61.54	6.659
61.76	2.665
61.98	6.85
62.2	7.883
62.42	8.96
62.64	6.895
62.86	3.765
63.08	2.466
63.3	3.328
63.52	8.298
63.74	2.27
63.96	12.245
64.18	6.212
64.4	3.274
64.62	4.651
64.84	11.556
65.06	9.786
65.28	2.14
65.5	3.22
65.72	2.668
65.94	2.375
66.16	4.446
66.38	0.592
66.6	1.511
66.82	6.53
67.04	4.333
67.26	8.375
67.48	2.065
67.7	0.832
67.92	0.735
68.14	2.675
68.36	2.405
68.58	6.53
68.8	14.535
69.02	5.523
69.24	7.572
69.46	4.528
69.68	0.639
69.9	2.405
70.12	6.524
70.34	1.537
70.56	0.537
70.78	9.575
71	0.589
71.22	8.44
71.44	6.645
71.66	3.362
71.88	5.429
72.1	4.397
72.32	10.403
72.54	4.422
72.76	4.539
72.98	6.506
73.2	1.565
73.42	4.625
73.64	2.616
73.86	0.373
74.08	1.427
74.3	2.457
74.52	3.58
74.74	8.725
74.96	2.062
75.18	9.116
75.4	1.289
75.62	6.198
75.84	4.148
76.06	0.104
76.28	4.04
76.5	7.12
76.72	4.912
76.94	6.781
77.16	6.409
77.38	5.608
77.6	5.659
77.82	7.535
78.04	1.678
78.26	4.731
78.48	4.829
78.7	7.074
78.92	4.042
79.14	0.097
79.36	6.398
79.58	10.51
79.8	2.058
80.02	6.945
80.24	6.954
80.46	1.088
80.68	5.136
80.9	2.168
81.12	7.05
81.34	2.068
81.56	9.212
81.78	2.94
82	2.135
82.22	9.184
82.44	5.131
82.66	1.019
82.88	0.911
83.1	1.819
83.32	6.777
83.54	7.537
83.76	6.551
83.98	5.334
84.2	7.247
84.42	3.001
84.64	7.853
84.86	2.816
85.08	0.959
85.3	3.795
85.52	2.193
85.74	6.03
85.96	3.124
86.18	3.095
86.4	10.188
86.62	2.309
86.84	4.324
87.06	1.417
87.28	1.672
87.5	6.659
87.72	4.748
87.94	5.802
88.16	3.612
88.38	1.67
88.6	3.805
88.82	1.835
89.04	1.955
89.26	4.89
89.48	4.948
89.7	3.097
89.92	3.803
