Measurement: Powder, Xray Data XY Processed
Mineral: Gedrite
Rruff sample: R050339
Ideal chemistry: [box]Mg_2_(Mg_3_Al_2_)(Si_6_Al_2_)O_22_(OH)_2_
Locality: Bamble, Telemark, Norway
Source: California Institute of Technology
Description: Dark gray cleavage fragment
Diffraction sample description: Powder
Measured chemistry: ([box]_0.61_Na_0.39_)(Mg_4.55_Fe^2+^_1.40_Al_0.91_Ti_0.07_Ca_0.07_)_Σ7_(Si_6.56_Al_1.44_)_Σ8_O_22_(OH)_2_
Cell parameters: a: 18.5639(9) b: 17.8341(8) c: 5.2750(3) alpha: 90. beta: 90. gamma: 90. volume: 1746.4(1) crystal system: orthorhombic
x	intensity
5	0
5.22	12.4053
5.44	18.2069
5.66	6.46907
5.88	8.7831
6.1	16.2909
6.32	18.4938
6.54	33.642
6.76	6.47482
6.98	16.0516
7.2	5.59958
7.42	10.2093
7.64	15.4684
7.86	5.2355
8.08	8.97699
8.3	13.1837
8.52	13.7645
8.74	3.31823
8.96	8.92994
9.18	17.0122
9.4	15.5867
9.62	2.25241
9.84	34.3209
10.06	24.5123
10.28	7.27301
10.5	5.19722
10.72	71.6513
10.94	15.6041
11.16	3.00872
11.38	4.86972
11.6	17.7224
11.82	3.13351
12.04	23.7354
12.26	4.95259
12.48	6.73623
12.7	6.43167
12.92	5.16935
13.14	9.33733
13.36	12.511
13.58	20.6462
13.8	20.0258
14.02	1.11695
14.24	13.5698
14.46	10.1036
14.68	26.5632
14.9	7.87209
15.12	16.6716
15.34	19.555
15.56	10.8246
15.78	9.42168
16	20.5601
16.22	22.8196
16.44	17.0154
16.66	14.5864
16.88	18.1447
17.1	11.3368
17.32	7.94887
17.54	18.3406
17.76	22.6369
17.98	1.51213
18.2	32.7524
18.42	7.57267
18.64	18.4535
18.86	8.46151
19.08	9.65832
19.3	16.8329
19.52	10.0171
19.74	2.90421
19.96	91.094
20.18	19.6703
20.4	13.6478
20.62	3.50556
20.84	20.0922
21.06	11.8291
21.28	6.10077
21.5	3.85597
21.72	16.6999
21.94	4.46085
22.16	6.16776
22.38	6.06514
22.6	4.19724
22.82	15.0541
23.04	16.5164
23.26	13.7623
23.48	12.5117
23.7	11.3516
23.92	14.33
24.14	18.2818
24.36	28.554
24.58	79.7589
24.8	8.81619
25.02	17.3976
25.24	5.44833
25.46	17.8278
25.68	13.6365
25.9	5.15874
26.12	16.7352
26.34	4.77679
26.56	33.0366
26.78	159.461
27	4.75542
27.22	14.6398
27.44	21.1781
27.66	16.1027
27.88	41.7288
28.1	19.4337
28.32	6.50099
28.54	13.2552
28.76	0.398228
28.98	5.48286
29.2	22.2626
29.42	125.663
29.64	13.6921
29.86	12.5531
30.08	0.294563
30.3	8.50759
30.52	24.5796
30.74	15.5775
30.96	1.27056
31.18	84.8924
31.4	11.8479
31.62	11.4056
31.84	69.8072
32.06	27.6977
32.28	10.8269
32.5	23.7466
32.72	54.6329
32.94	3.79966
33.16	22.8512
33.38	11.6762
33.6	23.2317
33.82	35.1454
34.04	9.13143
34.26	5.04007
34.48	8.85527
34.7	3.70944
34.92	14.5268
35.14	40.4244
35.36	57.9326
35.58	0.527111
35.8	8.9868
36.02	55.3259
36.24	19.9522
36.46	21.4329
36.68	21.768
36.9	1.71171
37.12	19.8939
37.34	0.845749
37.56	1.839
37.78	17.9139
38	1.12937
38.22	2.72173
38.44	16.9182
38.66	13.2872
38.88	7.85231
39.1	12.2886
39.32	2.46704
39.54	33.8681
39.76	12.2114
39.98	25.297
40.2	11.5607
40.42	13.2632
40.64	8.27429
40.86	0.352394
41.08	17.2781
41.3	9.19567
41.52	5.47368
41.74	16.3419
41.96	18.3081
42.18	11.0139
42.4	9.50474
42.62	51.1186
42.84	16.9493
43.06	6.1304
43.28	11.4036
43.5	11.7502
43.72	10.0386
43.94	9.32801
44.16	5.35679
44.38	3.48845
44.6	21.8959
44.82	3.66751
45.04	10.271
45.26	11.1119
45.48	2.61656
45.7	76.4483
45.92	16.2566
46.14	42.5305
46.36	17.5549
46.58	9.65108
46.8	14.1152
47.02	12.9359
47.24	11.3312
47.46	3.18086
47.68	5.29623
47.9	18.3917
48.12	1.21124
48.34	10.8312
48.56	16.2254
48.78	6.78074
49	18.656
49.22	2.30389
49.44	29.9313
49.66	28.9081
49.88	18.7027
50.1	21.9248
50.32	30.7297
50.54	7.91695
50.76	12.61
50.98	7.12997
51.2	19.6858
51.42	1.05666
51.64	9.17803
51.86	14.475
52.08	8.5715
52.3	13.8462
52.52	10.9111
52.74	19.049
52.96	25.0791
53.18	30.0788
53.4	19.0735
53.62	0.032993
53.84	13.2199
54.06	9.16442
54.28	13.1796
54.5	16.6154
54.72	14.805
54.94	26.8233
55.16	19.7879
55.38	24.0659
55.6	5.6429
55.82	0.653664
56.04	10.8223
56.26	0.44857
56.48	14.294
56.7	18.6919
56.92	2.21259
57.14	30.6122
57.36	5.37509
57.58	5.64898
57.8	18.4161
58.02	4.80545
58.24	3.40846
58.46	15.7821
58.68	24.8002
58.9	17.0183
59.12	13.4223
59.34	11.7814
59.56	7.72135
59.78	20.0111
60	42.9779
60.22	1.29407
60.44	11.9755
60.66	9.02312
60.88	5.91463
61.1	8.78147
61.32	4.52836
61.54	42.2496
61.76	9.21636
61.98	7.61034
62.2	2.75363
62.42	15.4719
62.64	17.2271
62.86	11.6964
63.08	15.3597
63.3	20.1806
63.52	2.76086
63.74	12.0501
63.96	6.99363
64.18	26.3229
64.4	0.527515
64.62	19.7039
64.84	5.32031
65.06	5.66516
65.28	6.43321
65.5	19.6239
65.72	14.2578
65.94	24.0567
66.16	16.6723
66.38	4.03262
66.6	5.72011
66.82	10.5867
67.04	0.672836
67.26	8.74896
67.48	8.84995
67.7	6.87402
67.92	14.3672
68.14	17.8977
68.36	4.66352
68.58	16.6684
68.8	26.7616
69.02	6.7292
69.24	11.4331
69.46	5.8985
69.68	8.30321
69.9	11.3647
70.12	14.4192
70.34	13.5279
70.56	14.7163
70.78	16.4632
71	31.2518
71.22	19.1847
71.44	37.9157
71.66	19.7454
71.88	12.6381
72.1	8.0794
72.32	22.9345
72.54	26.8642
72.76	4.45068
72.98	7.36185
73.2	8.63098
73.42	2.66654
73.64	21.2405
73.86	24.3244
74.08	18.9151
74.3	12.0301
74.52	9.08736
74.74	1.24676
74.96	6.90842
75.18	22.2529
75.4	8.28108
75.62	15.1382
75.84	18.7507
76.06	3.27556
76.28	18.4644
76.5	9.84222
76.72	15.507
76.94	17.4807
77.16	22.4757
77.38	1.30057
77.6	17.8475
77.82	19.8236
78.04	16.5242
78.26	10.4123
78.48	15.6224
78.7	5.78893
78.92	6.84561
79.14	12.931
79.36	15.8002
79.58	2.37541
79.8	10.6315
80.02	24.4862
80.24	30.8065
80.46	24.0411
80.68	10.8402
80.9	6.62029
81.12	20.7254
81.34	6.68278
81.56	27.8201
81.78	5.55925
82	6.55333
82.22	10.0515
82.44	14.1691
82.66	8.96914
82.88	2.75003
83.1	13.8719
83.32	13.6519
83.54	12.2554
83.76	7.1818
83.98	5.25752
84.2	14.6314
84.42	3.44416
84.64	0.329018
84.86	16.5504
85.08	11.0468
85.3	4.7871
85.52	11.8944
85.74	27.322
85.96	14.9075
86.18	3.948
86.4	10.8387
86.62	5.71181
86.84	14.0985
87.06	1.48504
87.28	16.617
87.5	3.49551
87.72	11.1491
87.94	14.1649
88.16	2.22531
88.38	13.3543
88.6	25.6739
88.82	16.58
89.04	11.997
89.26	13.8375
89.48	4.57003
89.7	20.6208
89.92	12.2992
