Measurement: Powder, Xray Data XY Processed
Mineral: Gehlenite
Rruff sample: R060841
Ideal chemistry: Ca_2_Al(SiAl)O_7_
Locality: Monzoni, Tyrol, Italy
Source: Michael Scott
Description: Brown rectangular prism
Diffraction sample description: Powder
Measured chemistry: (Ca_1.92_Na_0.07_K_0.01_)_Σ=2_(Al_0.62_Mg_0.25_Fe^2+^_0.13_)_Σ=1_(Si_1.46_Al_0.54_)O_7_ ; = lighter phase, and the darker phase is calcite
Cell parameters: a: 7.7398(6) b: 7.7398(6) c: 5.0454(3) alpha: 90 beta: 90 gamma: 90 volume: 302.24(4) crystal system: tetragonal
x	intensity
5	0
5.22	2.64762
5.44	4.13585
5.66	8.17493
5.88	6.43217
6.1	4.97575
6.32	14.4768
6.54	16.0304
6.76	7.75457
6.98	0.002115
7.2	17.3958
7.42	11.4336
7.64	0.000586
7.86	9.38891
8.08	9.54218
8.3	5.48654
8.52	5.63279
8.74	6.77835
8.96	7.78134
9.18	8.53932
9.4	12.8834
9.62	4.82376
9.84	1.93141
10.06	13.481
10.28	9.52901
10.5	3.86125
10.72	5.9697
10.94	2.11687
11.16	6.31222
11.38	11.3495
11.6	1.78518
11.82	3.52585
12.04	3.71664
12.26	5.8599
12.48	9.85391
12.7	6.02349
12.92	6.82343
13.14	8.79343
13.36	8.7702
13.58	3.86598
13.8	8.88538
14.02	3.62618
14.24	2.72117
14.46	4.93703
14.68	10.7994
14.9	8.77866
15.12	1.25825
15.34	6.6129
15.56	6.53695
15.78	1.48467
16	0.273002
16.22	25.4203
16.44	2.18023
16.66	2.90647
16.88	7.57579
17.1	1.77831
17.32	7.67542
17.54	39.8985
17.76	4.06725
17.98	4.06684
18.2	0.344699
18.42	1.51284
18.64	3.69733
18.86	8.70011
19.08	3.11572
19.3	8.09895
19.52	2.89416
19.74	10.9583
19.96	2.67073
20.18	5.55924
20.4	8.18727
20.62	14.2487
20.84	14.0749
21.06	18.103
21.28	3.7442
21.5	2.74577
21.72	17.0941
21.94	11.2523
22.16	9.20597
22.38	9.71621
22.6	6.91778
22.82	2.0054
23.04	9.68395
23.26	3.74543
23.48	6.64929
23.7	10.9851
23.92	33.7791
24.14	10.6032
24.36	6.48609
24.58	3.5551
24.8	5.26778
25.02	8.10848
25.24	1.43701
25.46	8.38824
25.68	9.39346
25.9	9.24302
26.12	4.16687
26.34	8.81281
26.56	0.698399
26.78	0.315541
27	9.05476
27.22	4.40328
27.44	11.0038
27.66	3.30181
27.88	1.71283
28.1	4.0229
28.32	5.19631
28.54	10.5168
28.76	7.34172
28.98	20.5702
29.2	22.6288
29.42	16.6519
29.64	12.4126
29.86	0.015142
30.08	7.90717
30.3	14.8777
30.52	1.17266
30.74	10.7581
30.96	10.2025
31.18	46.5069
31.4	226.633
31.62	21.2459
31.84	6.9284
32.06	16.1016
32.28	4.16228
32.5	8.45824
32.72	23.8299
32.94	33.4153
33.16	25.5544
33.38	9.85426
33.6	7.55428
33.82	7.9097
34.04	5.48958
34.26	0.110748
34.48	4.96761
34.7	9.93431
34.92	17.366
35.14	4.15853
35.36	7.83336
35.58	31.4852
35.8	7.35046
36.02	9.11412
36.24	16.755
36.46	10.2388
36.68	26.0498
36.9	12.2437
37.12	1.33741
37.34	24.0443
37.56	44.3435
37.78	21.3728
38	11.5802
38.22	3.49649
38.44	4.64407
38.66	11.0164
38.88	5.18246
39.1	10.3132
39.32	42.3915
39.54	9.50812
39.76	0.49571
39.98	8.46943
40.2	4.50397
40.42	6.86097
40.64	8.98297
40.86	20.9584
41.08	9.96646
41.3	11.1177
41.52	5.16624
41.74	14.9005
41.96	6.89804
42.18	1.90387
42.4	4.92439
42.62	8.96113
42.84	4.87181
43.06	1.98426
43.28	4.88359
43.5	18.8057
43.72	10.9101
43.94	3.77145
44.16	10.7994
44.38	47.8693
44.6	16.1467
44.82	1.24993
45.04	4.28736
45.26	1.45293
45.48	0.383916
45.7	8.92314
45.92	13.9339
46.14	13.8661
46.36	8.38512
46.58	5.48403
46.8	0.541644
47.02	17.5976
47.24	4.99687
47.46	3.05527
47.68	4.77499
47.9	6.39448
48.12	9.543
48.34	6.70256
48.56	7.7467
48.78	6.36767
49	5.32172
49.22	16.7784
49.44	10.9804
49.66	7.75614
49.88	7.90108
50.1	14.6855
50.32	5.79387
50.54	3.70883
50.76	6.69641
50.98	2.63641
51.2	8.60965
51.42	0.446234
51.64	3.8667
51.86	24.0836
52.08	55.0851
52.3	15.9846
52.52	1.73056
52.74	6.62817
52.96	11.9309
53.18	12.1609
53.4	8.31296
53.62	6.51957
53.84	3.74776
54.06	4.24903
54.28	0.096077
54.5	7.28635
54.72	9.64366
54.94	0.700464
55.16	10.3349
55.38	1.03244
55.6	4.96503
55.82	7.86921
56.04	3.76748
56.26	9.61829
56.48	7.29575
56.7	12.4474
56.92	5.23416
57.14	13.2873
57.36	6.70545
57.58	1.25059
57.8	0.515497
58.02	13.5901
58.24	2.38594
58.46	2.87824
58.68	5.04863
58.9	3.13465
59.12	3.98013
59.34	0.851072
59.56	10.9152
59.78	4.44569
60	5.08283
60.22	6.94447
60.44	14.1662
60.66	10.5737
60.88	6.47596
61.1	16.5825
61.32	22.1663
61.54	6.51414
61.76	14.6178
61.98	9.71342
62.2	2.03396
62.42	4.70345
62.64	8.03844
62.86	0.783941
63.08	3.78548
63.3	3.56021
63.52	7.28004
63.74	0.025681
63.96	7.64547
64.18	10.6511
64.4	13.4822
64.62	7.51545
64.84	15.2317
65.06	33.3056
65.28	11.3412
65.5	11.5141
65.72	2.88147
65.94	10.9621
66.16	10.1283
66.38	10.1515
66.6	5.06693
66.82	3.06598
67.04	2.93119
67.26	3.70549
67.48	3.55387
67.7	12.552
67.92	3.60717
68.14	0.416821
68.36	5.61702
68.58	12.8236
68.8	7.07251
69.02	4.45192
69.24	1.74698
69.46	11.7953
69.68	4.04138
69.9	0.200727
70.12	8.16808
70.34	10.9142
70.56	6.7222
70.78	1.43261
71	5.24982
71.22	5.05396
71.44	9.88401
71.66	1.7412
71.88	9.68488
72.1	0.237634
72.32	4.87389
72.54	9.98737
72.76	0.933032
72.98	2.1869
73.2	8.28264
73.42	6.62133
73.64	13.5259
73.86	0.492846
74.08	1.32967
74.3	0.834947
74.52	9.64785
74.74	3.36869
74.96	6.18491
75.18	2.15436
75.4	1.33641
75.62	1.04847
75.84	14.1137
76.06	10.2635
76.28	1.30141
76.5	0.464017
76.72	0.213305
76.94	5.45661
77.16	8.54364
77.38	3.67493
77.6	1.74464
77.82	9.60071
78.04	6.61878
78.26	6.33267
78.48	13.5159
78.7	13.452
78.92	0.121759
79.14	0.291846
79.36	6.28303
79.58	4.32309
79.8	4.30066
80.02	0.738497
80.24	5.23467
80.46	0.665718
80.68	9.42804
80.9	1.26585
81.12	4.47774
81.34	13.1665
81.56	10.3373
81.78	1.71275
82	12.8105
82.22	6.22217
82.44	8.30895
82.66	8.34557
82.88	8.31204
83.1	7.44026
83.32	5.40441
83.54	4.15323
83.76	4.90631
83.98	3.75344
84.2	4.48984
84.42	2.47839
84.64	0.937917
84.86	6.71621
85.08	2.51645
85.3	7.23003
85.52	11.1278
85.74	10.1107
85.96	11.058
86.18	11.9814
86.4	1.20862
86.62	10.4545
86.84	3.123
87.06	7.46062
87.28	14.5473
87.5	7.73258
87.72	10.7815
87.94	1.05309
88.16	8.1611
88.38	3.3938
88.6	5.60684
88.82	5.76053
89.04	7.71787
89.26	1.79996
89.48	2.21559
89.7	4.57051
89.92	10.9992
