Measurement: Powder, Xray Data XY Processed
Mineral: Germanite
Rruff sample: R050439
Ideal chemistry: Cu^1+^_8_Cu^2+^_5_Fe^3+^_2_Ge^4+^_2_S^2-^_16_
Locality: Tsumeb mine, Tsumeb, Otavi District, Oshikoto, Namibia
Source: University of Arizona Mineral Museum
Description: Black with purple hints, massive
Diffraction sample description: Powder, with minor tennantite (cubic: a=10.24)
Measured chemistry: (Cu_11.61_Fe^2+^_0.87_Zn_0.52_)_Σ=13_Fe_2.00_(Ge_1.71_As_0.29_)_Σ=2_S_16.00_ ; = dark-gray phase. (Cu_10.59_Zn_0.41_)_Σ=11_Fe_4.00_(Ge_1.46_As_0.54_)_Σ=2_S_16.00_ = lighter-gray phase. Lightest phase is PbS.
Cell parameters: a: 10.6110(9) b: 10.6110(9) c: 10.6110(9) alpha: 90 beta: 90 gamma: 90 volume: 1194.7(3) crystal system: cubic
x	intensity
0	0
5.19	7.352
5.41	21.803
5.63	5.458
5.85	6.442
6.07	8.375
6.29	18.244
6.51	9.579
6.73	16.146
6.95	3.272
7.17	7.686
7.39	1.88
7.61	6.778
7.83	15.637
8.05	6.874
8.27	8.409
8.49	8.067
8.71	10.74
8.93	7.696
9.15	13.026
9.37	11.768
9.59	6.958
9.81	2.726
10.03	12.241
10.25	11.655
10.47	3.798
10.69	6.638
10.91	3.498
11.13	13.385
11.35	5.788
11.57	12.99
11.79	19.123
12.01	14.305
12.23	16.202
12.45	12.292
12.67	6.366
12.89	2.478
13.11	16.837
13.33	9.016
13.55	1.821
13.77	7.26
13.99	4.945
14.21	21.518
14.43	4.855
14.65	4.698
14.87	7.33
15.09	0.938
15.31	12.621
15.53	9.598
15.75	8.921
15.97	14.58
16.19	5.998
16.41	3.094
16.63	28.954
16.85	26.935
17.07	1.34
17.29	4.043
17.51	4.687
17.73	17.691
17.95	6.206
18.17	4.155
18.39	3.267
18.61	12.497
18.83	3.315
19.05	3.389
19.27	10.875
19.49	24.634
19.71	7.324
19.93	6.479
20.15	18.777
20.37	16.344
20.59	42.21
20.81	3.768
21.03	4.059
21.25	2.553
21.47	11.464
21.69	7.247
21.91	15.258
22.13	5.343
22.35	11.261
22.57	9.794
22.79	0.25
23.01	15.426
23.23	5.023
23.45	11.855
23.67	19.716
23.89	5.025
24.11	2.28
24.33	6.473
24.55	11.68
24.77	16.671
24.99	3.654
25.21	10.903
25.43	7.296
25.65	9.213
25.87	12.302
26.09	6.383
26.31	6.688
26.53	30.201
26.75	3.703
26.97	1.068
27.19	1.876
27.41	14.594
27.63	1.367
27.85	18.786
28.07	6.035
28.29	7.834
28.51	22.8
28.73	41.736
28.95	32.33
29.17	373.884
29.39	110.647
29.61	11.446
29.83	1.389
30.05	9.254
30.27	29.971
30.49	9.525
30.71	0.96
30.93	11.239
31.15	3.174
31.37	3.453
31.59	22.826
31.81	10.794
32.03	4.995
32.25	0.316
32.47	1.999
32.69	3.639
32.91	13.276
33.13	14.337
33.35	4.057
33.57	18.547
33.79	61.32
34.01	22.168
34.23	14.47
34.45	16.999
34.67	3.134
34.89	4.929
35.11	3.451
35.33	4.393
35.55	1.31
35.77	3.848
35.99	27.917
36.21	2.739
36.43	0.177
36.65	8.24
36.87	9.078
37.09	18.049
37.31	26.796
37.53	17.351
37.75	9.496
37.97	22.694
38.19	13.85
38.41	12.965
38.63	0.492
38.85	0.268
39.07	8.74
39.29	20.777
39.51	6.236
39.73	2.057
39.95	6.537
40.17	0.418
40.39	3.489
40.61	2.812
40.83	6.972
41.05	5.832
41.27	7.092
41.49	15.256
41.71	4.544
41.93	9.897
42.15	7.001
42.37	14.531
42.59	0.721
42.81	3.092
43.03	5.927
43.25	15.813
43.47	19.467
43.69	16.851
43.91	9.899
44.13	0.689
44.35	5.114
44.57	2.543
44.79	1.031
45.01	9.342
45.23	7.561
45.45	9.373
45.67	3.078
45.89	8.93
46.11	10.538
46.33	6.536
46.55	6.966
46.77	9.428
46.99	11.602
47.21	3.583
47.43	2.664
47.65	25.719
47.87	4.296
48.09	13.602
48.31	17.885
48.53	208.185
48.75	165.335
48.97	13.017
49.19	12.341
49.41	9.266
49.63	10.521
49.85	16.134
50.07	5.925
50.29	12.358
50.51	24.243
50.73	5.999
50.95	6.113
51.17	1.014
51.39	5.683
51.61	28.275
51.83	12.339
52.05	10.377
52.27	13.01
52.49	1.577
52.71	15.456
52.93	3.663
53.15	11.566
53.37	1.204
53.59	0.563
53.81	12.935
54.03	8.045
54.25	17.98
54.47	17.153
54.69	0.625
54.91	19.419
55.13	12.825
55.35	6.047
55.57	4.529
55.79	2.435
56.01	10.093
56.23	14.941
56.45	18.586
56.67	11.474
56.89	1.453
57.11	5.942
57.33	3.412
57.55	67.019
57.77	87.465
57.99	35.76
58.21	8.733
58.43	0.916
58.65	5.197
58.87	16.306
59.09	9.108
59.31	9.942
59.53	8.436
59.75	11.927
59.97	1.179
60.19	7.465
60.41	8.367
60.63	12.178
60.85	0.261
61.07	1.705
61.29	7.742
61.51	0.121
61.73	8.614
61.95	14.354
62.17	26.18
62.39	13.073
62.61	17.169
62.83	12.778
63.05	17.36
63.27	18.579
63.49	10.752
63.71	7.633
63.93	19.456
64.15	2.224
64.37	9.609
64.59	22.464
64.81	19.388
65.03	7.749
65.25	0.972
65.47	14.359
65.69	5.707
65.91	12.232
66.13	10.227
66.35	19.509
66.57	8.74
66.79	7.623
67.01	7.925
67.23	19.847
67.45	12.861
67.67	18.066
67.89	6.603
68.11	8.323
68.33	17.043
68.55	19.583
68.77	22.897
68.99	0.321
69.21	12.647
69.43	6.737
69.65	13.867
69.87	4.258
70.09	5.388
70.31	19.971
70.53	10.329
70.75	1.04
70.97	19.927
71.19	24.72
71.41	15.887
71.63	2.506
71.85	0.956
72.07	18.014
72.29	13.342
72.51	12.13
72.73	6.374
72.95	13.399
73.17	2.054
73.39	7.224
73.61	13.421
73.83	31.887
74.05	24.141
74.27	6.668
74.49	10.696
74.71	1.802
74.93	17.321
75.15	11.472
75.37	10.261
75.59	6.019
75.81	13.668
76.03	0.203
76.25	20.533
76.47	11.09
76.69	1.282
76.91	12.438
77.13	17.876
77.35	7.247
77.57	5.309
77.79	2.672
78.01	17.472
78.23	9.024
78.45	26.38
78.67	35.905
78.89	26.077
79.11	21.126
79.33	6.754
79.55	14.21
79.77	17.367
79.99	9.708
80.21	0.47
80.43	13.478
80.65	14.113
80.87	7.26
81.09	3.418
81.31	1.616
81.53	12.822
81.75	4.906
81.97	4.788
82.19	12.846
82.41	24.038
82.63	26.663
82.85	1.965
83.07	10.275
83.29	14.65
83.51	5.583
83.73	4.704
83.95	15.697
84.17	1.856
84.39	13.946
84.61	1.688
84.83	23.457
85.05	12.294
85.27	10.889
85.49	5.928
85.71	0.404
85.93	3.424
86.15	11.191
86.37	13.97
86.59	15.672
86.81	11.12
87.03	3.499
87.25	6.04
87.47	11.574
87.69	9.436
87.91	12.774
88.13	14.58
88.35	13.26
88.57	14.717
88.79	6.501
89.01	13.563
89.23	20.881
89.45	6.674
89.67	19.544
89.89	12.338
