Measurement: Powder, Xray Data XY Processed
Mineral: Gersdorffite
Rruff sample: R070304
Ideal chemistry: Ni^3+^(AsS)^3-^
Locality: Aït Ahmane, Bou Azzer, Anti-Atlas Mts, Morocco
Source: Michael Scott
Description: Steel gray metallic massive, this sample used by Bayliss to create ICDD data. Structure refined to determine space group.
Diffraction sample description: Powder
Measured chemistry: (Ni_0.99_Co_0.01_)_Σ=1_As_1.00_S_1.00_ ; trace amounts of Fe
Cell parameters: a: 5.6857(1) b: 5.6857(1) c: 5.6857(1) alpha: 90 beta: 90 gamma: 90 volume: 183.802(9) crystal system: cubic
x	intensity
5	0
5.22	15.863
5.44	11.4774
5.66	38.1813
5.88	11.1867
6.1	19.9312
6.32	23.5055
6.54	19.436
6.76	27.7636
6.98	16.365
7.2	22.4915
7.42	5.97564
7.64	3.83786
7.86	28.3627
8.08	17.1038
8.3	19.6601
8.52	6.28541
8.74	19.8537
8.96	18.2944
9.18	14.003
9.4	31.2614
9.62	16.3413
9.84	18.7485
10.06	2.03438
10.28	9.38372
10.5	26.2989
10.72	28.1005
10.94	11.7955
11.16	15.2446
11.38	14.4945
11.6	3.76387
11.82	12.9692
12.04	19.6272
12.26	26.1278
12.48	15.6601
12.7	17.1769
12.92	43.6219
13.14	28.0206
13.36	18.9838
13.58	19.7443
13.8	15.7479
14.02	12.5721
14.24	13.802
14.46	40.3113
14.68	14.3616
14.9	4.9462
15.12	13.8723
15.34	37.1112
15.56	21.7316
15.78	35.3931
16	16.07
16.22	29.8328
16.44	26.5792
16.66	7.35851
16.88	19.7717
17.1	15.7054
17.32	5.70597
17.54	18.4224
17.76	1.53286
17.98	12.6826
18.2	14.3588
18.42	19.6863
18.64	43.0527
18.86	33.8351
19.08	13.1014
19.3	18.2878
19.52	17.5504
19.74	12.5705
19.96	20.0042
20.18	23.6391
20.4	2.8328
20.62	23.777
20.84	26.3213
21.06	5.1984
21.28	25.8867
21.5	31.8862
21.72	8.38941
21.94	8.33699
22.16	157.868
22.38	30.8846
22.6	4.93214
22.82	8.18036
23.04	25.8734
23.26	5.43325
23.48	13.8735
23.7	11.7529
23.92	10.8781
24.14	28.2769
24.36	7.01023
24.58	31.1991
24.8	19.4082
25.02	11.3317
25.24	18.5611
25.46	13.9803
25.68	12.5407
25.9	22.1042
26.12	2.6844
26.34	8.64399
26.56	14.0375
26.78	21.3544
27	34.7714
27.22	71.9908
27.44	17.3502
27.66	20.4385
27.88	7.71326
28.1	33.9362
28.32	20.3957
28.54	15.9992
28.76	20.6918
28.98	24.1724
29.2	12.9075
29.42	27.5955
29.64	12.2379
29.86	14.369
30.08	9.42699
30.3	22.2119
30.52	14.8221
30.74	21.9969
30.96	3.70342
31.18	26.0972
31.4	259.875
31.62	133.257
31.84	57.3182
32.06	14.6503
32.28	23.8804
32.5	20.8943
32.72	23.3771
32.94	34.6393
33.16	2.18578
33.38	18.4194
33.6	20.6075
33.82	8.29585
34.04	17.9567
34.26	0.666122
34.48	18.803
34.7	18.786
34.92	28.9983
35.14	127.068
35.36	916.434
35.58	35.1528
35.8	0.699814
36.02	15.3641
36.24	6.06594
36.46	12.9136
36.68	1.09813
36.9	9.59937
37.12	13.2558
37.34	21.9428
37.56	8.65915
37.78	16.3582
38	10.8132
38.22	5.02607
38.44	31.1656
38.66	176.233
38.88	618.318
39.1	32.407
39.32	25.247
39.54	9.59018
39.76	24.2202
39.98	21.5528
40.2	4.53126
40.42	38.3714
40.64	14.0104
40.86	22.3364
41.08	6.46516
41.3	21.3624
41.52	11.046
41.74	31.9812
41.96	8.9576
42.18	14.1587
42.4	16.8818
42.62	25.7036
42.84	17.1454
43.06	20.6339
43.28	8.50501
43.5	26.444
43.72	2.80415
43.94	35.1646
44.16	10.6684
44.38	11.176
44.6	21.792
44.82	28.7422
45.04	200.846
45.26	106.103
45.48	15.3421
45.7	10.9074
45.92	11.9252
46.14	23.5583
46.36	33.346
46.58	43.962
46.8	26.5731
47.02	8.74067
47.24	7.42509
47.46	12.8513
47.68	43.941
47.9	10.3619
48.12	13.0855
48.34	18.3908
48.56	22.9335
48.78	5.29051
49	11.8088
49.22	16.1304
49.44	7.04519
49.66	8.13625
49.88	14.4395
50.1	7.36176
50.32	22.6636
50.54	19.8673
50.76	66.1719
50.98	18.5485
51.2	0.147133
51.42	12.5412
51.64	2.15416
51.86	22.7193
52.08	5.5782
52.3	8.49369
52.52	25.3566
52.74	0.196907
52.96	8.11104
53.18	31.9207
53.4	781.285
53.62	285.725
53.84	43.3679
54.06	5.52921
54.28	2.19364
54.5	8.94006
54.72	16.8592
54.94	2.52773
55.16	3.12743
55.38	8.09126
55.6	7.33955
55.82	20.7914
56.04	93.2548
56.26	16.3684
56.48	21.2534
56.7	15.4731
56.92	19.0239
57.14	13.7423
57.36	20.5127
57.58	11.3061
57.8	28.8815
58.02	3.40321
58.24	14.1546
58.46	233.024
58.68	159.151
58.9	14.0212
59.12	1.14594
59.34	7.42976
59.56	6.29029
59.78	6.1816
60	18.0974
60.22	0.843292
60.44	18.3864
60.66	25.92
60.88	228.006
61.1	170.659
61.32	25.4033
61.54	30.3102
61.76	15.5722
61.98	2.89508
62.2	36.7259
62.42	17.6248
62.64	18.4926
62.86	20.7861
63.08	18.2243
63.3	28.4978
63.52	20.715
63.74	23.41
63.96	27.7333
64.18	1.34066
64.4	9.30135
64.62	8.07038
64.84	51.517
65.06	16.8075
65.28	27.9235
65.5	10.8732
65.72	45.3672
65.94	43.0123
66.16	9.06239
66.38	31.4877
66.6	5.76175
66.82	8.88524
67.04	26.7228
67.26	14.1779
67.48	5.36124
67.7	30.2764
67.92	27.3041
68.14	17.583
68.36	31.4555
68.58	7.5766
68.8	16.2773
69.02	25.1738
69.24	27.2614
69.46	22.9902
69.68	26.5399
69.9	1.02708
70.12	30.0956
70.34	28.5668
70.56	26.9311
70.78	23.2592
71	12.0784
71.22	9.60548
71.44	25.3071
71.66	23.1755
71.88	8.72429
72.1	20.3489
72.32	0.701385
72.54	30.1319
72.76	6.6997
72.98	6.75929
73.2	0.745598
73.42	9.04351
73.64	22.0205
73.86	19.5382
74.08	10.0036
74.3	7.81565
74.52	43.948
74.74	34.8646
74.96	11.9685
75.18	10.389
75.4	18.7075
75.62	28.9469
75.84	17.6223
76.06	3.27025
76.28	34.2627
76.5	37.1416
76.72	127.038
76.94	81.8197
77.16	22.8324
77.38	9.88638
77.6	24.3844
77.82	26.7109
78.04	4.91293
78.26	19.3766
78.48	21.9614
78.7	33.9926
78.92	68.0722
79.14	39.4424
79.36	0.120956
79.58	22.4336
79.8	12.6169
80.02	9.81551
80.24	9.9582
80.46	4.49162
80.68	17.7893
80.9	12.8136
81.12	11.9849
81.34	9.36815
81.56	11.6634
81.78	26.1793
82	5.75375
82.22	0.297379
82.44	26.0169
82.66	30.761
82.88	22.0558
83.1	42.8119
83.32	53.2181
83.54	26.8208
83.76	0.101692
83.98	26.2956
84.2	14.2202
84.42	1.57059
84.64	14.1603
84.86	11.3589
85.08	23.371
85.3	23.8628
85.52	16.0638
85.74	22.5411
85.96	6.62296
86.18	3.63141
86.4	26.222
86.62	15.2389
86.84	14.5322
87.06	23.2034
87.28	23.964
87.5	63.5256
87.72	22.5722
87.94	12.6295
88.16	18.756
88.38	18.1116
88.6	7.74805
88.82	3.15618
89.04	14.5086
89.26	28.0004
89.48	170.652
89.7	82.1496
89.92	36.8532
