Measurement: Powder, Xray Data XY Processed
Mineral: Getchellite
Rruff sample: R050156
Ideal chemistry: SbAsS_3_
Locality: Khaidarkan, Kyrgyzstan
Source: Jim McGlasson
Description: Red platy crystals
Diffraction sample description: Single crystal, powder profile is calculated
Cell parameters: a: 11.5983(2) b: 8.86870(9) c: 9.8188(1) alpha: 90 beta: 115.800(1) gamma: 90 volume: 909.31(2) crystal system: monoclinic
x	intensity
5	0
5.22	0
5.44	0
5.66	0
5.88	0
6.1	0
6.32	0
6.54	0
6.76	0
6.98	0
7.2	0
7.42	0
7.64	0
7.86	0
8.08	0
8.3	0
8.52	0
8.74	0
8.96	0
9.18	0
9.4	0
9.62	0
9.84	0
10.06	5.295
10.28	0
10.5	0
10.72	0
10.94	0
11.16	0
11.38	0
11.6	0
11.82	0
12.04	0
12.26	0
12.48	0
12.7	0
12.92	0
13.14	0.019
13.36	0
13.58	0
13.8	0
14.02	8.049
14.24	0.197
14.46	0
14.68	0
14.9	0
15.12	0
15.34	0
15.56	2.555
15.78	0
16	0
16.22	0
16.44	0
16.66	0
16.88	0.06
17.1	0.013
17.32	0
17.54	0
17.76	0
17.98	0
18.2	0
18.42	20.394
18.64	2.82
18.86	0
19.08	0
19.3	0
19.52	0
19.74	13.52
19.96	3.64
20.18	0.873
20.4	0
20.62	33.539
20.84	0.002
21.06	0
21.28	0
21.5	0
21.72	8.891
21.94	0
22.16	0.012
22.38	30.155
22.6	0.009
22.82	0
23.04	0
23.26	5.243
23.48	0
23.7	0
23.92	0
24.14	0
24.36	0
24.58	0
24.8	0
25.02	0.101
25.24	6.554
25.46	3.631
25.68	0.021
25.9	0
26.12	0
26.34	3.099
26.56	0
26.78	0.081
27	2.833
27.22	0.144
27.44	4.659
27.66	0.222
27.88	0
28.1	0
28.32	19.198
28.54	3.832
28.76	0
28.98	0
29.2	0
29.42	34.49
29.64	0.001
29.86	0
30.08	0
30.3	20.828
30.52	0
30.74	11.634
30.96	0.693
31.18	0.654
31.4	16.32
31.62	10.287
31.84	43.95
32.06	3.445
32.28	10.77
32.5	0
32.72	0.734
32.94	30.205
33.16	2.219
33.38	1.517
33.6	0
33.82	0
34.04	0.006
34.26	2.122
34.48	1.254
34.7	3.73
34.92	0.503
35.14	0
35.36	3.655
35.58	0.279
35.8	0.101
36.02	0
36.24	0.248
36.46	17.843
36.68	1.204
36.9	0
37.12	0
37.34	0.045
37.56	0.529
37.78	1.582
38	2.956
38.22	0.368
38.44	4.537
38.66	0.001
38.88	0.944
39.1	1.718
39.32	0.666
39.54	4.48
39.76	3.751
39.98	0.809
40.2	7.553
40.42	4.262
40.64	3.746
40.86	0.502
41.08	0.376
41.3	10.972
41.52	0.179
41.74	4.269
41.96	7.511
42.18	0.505
42.4	0.097
42.62	0.24
42.84	0.06
43.06	2.26
43.28	0.009
43.5	0
43.72	3.822
43.94	6.346
44.16	11.759
44.38	5.245
44.6	1.214
44.82	0.226
45.04	0.596
45.26	1.061
45.48	2.115
45.7	6.394
45.92	2.114
46.14	2.68
46.36	4.739
46.58	2.394
46.8	0.121
47.02	1.233
47.24	0.111
47.46	0.518
47.68	3.264
47.9	0.217
48.12	4.336
48.34	1.573
48.56	0.149
48.78	6.439
49	2.876
49.22	5.697
49.44	0.467
49.66	0.065
49.88	1.844
50.1	3.474
50.32	0.246
50.54	0.006
50.76	0.99
50.98	3.771
51.2	0.566
51.42	7.556
51.64	0.856
51.86	1.173
52.08	2.026
52.3	4.312
52.52	1.971
52.74	1.49
52.96	0.057
53.18	1.628
53.4	3.818
53.62	7.042
53.84	1.001
54.06	6.777
54.28	2.097
54.5	0.14
54.72	0.081
54.94	0.527
55.16	0.973
55.38	1.523
55.6	3.199
55.82	7.025
56.04	0.703
56.26	0.447
56.48	6.405
56.7	2.576
56.92	6.123
57.14	1.731
57.36	5.139
57.58	5.169
57.8	0.73
58.02	3.214
58.24	1.635
58.46	1.003
58.68	2.184
58.9	0.031
59.12	0.04
59.34	0.614
59.56	0.176
59.78	0.404
60	1.033
60.22	1.225
60.44	1.074
60.66	1.6
60.88	2.967
61.1	5.334
61.32	0.19
61.54	4.853
61.76	1.538
61.98	0.936
62.2	0.364
62.42	0.337
62.64	0.003
62.86	1.083
63.08	0.617
63.3	1.157
63.52	0.889
63.74	0.174
63.96	0.184
64.18	0.053
64.4	0.037
64.62	1.319
64.84	0.686
65.06	2.24
65.28	1.837
65.5	0.453
65.72	0.582
65.94	0.349
66.16	0.91
66.38	0.374
66.6	0.284
66.82	0.836
67.04	0.701
67.26	0.982
67.48	0.421
67.7	3.77
67.92	1.96
68.14	0.745
68.36	0.148
68.58	0.283
68.8	0.272
69.02	0.256
69.24	0.074
69.46	0.698
69.68	0.279
69.9	2.15
70.12	2.022
70.34	0.521
70.56	1.107
70.78	0.955
71	0.272
71.22	0.399
71.44	0.377
71.66	1.167
71.88	0.786
72.1	0.304
72.32	0.352
72.54	0.292
72.76	0.679
72.98	1.381
73.2	1.213
73.42	1.055
73.64	0.864
73.86	0.301
74.08	0.055
74.3	0.052
74.52	0.059
74.74	0.504
74.96	0.65
75.18	0.879
75.4	0.361
75.62	0.555
75.84	0.884
76.06	1.021
76.28	1.23
76.5	0.698
76.72	0.17
76.94	0.706
77.16	1.375
77.38	0.786
77.6	0.321
77.82	0.216
78.04	0.456
78.26	0.21
78.48	0.86
78.7	0.581
78.92	0.17
79.14	1.722
79.36	1.46
79.58	0.54
79.8	0.286
80.02	0.154
80.24	0.216
80.46	0.098
80.68	0.554
80.9	0.544
81.12	0.677
81.34	0.322
81.56	0.495
81.78	0.308
82	0.717
82.22	0.629
82.44	0.969
82.66	1.999
82.88	0.895
83.1	0.269
83.32	0.41
83.54	0.297
83.76	0.097
83.98	0.058
84.2	0.062
84.42	0.071
84.64	0.236
84.86	0.194
85.08	0.282
85.3	0.887
85.52	0.351
85.74	0.009
85.96	0.006
86.18	0.066
86.4	0.571
86.62	0.601
86.84	0.354
87.06	0.487
87.28	0.393
87.5	0.122
87.72	0.51
87.94	0.933
88.16	0.276
88.38	0.516
88.6	0.907
88.82	0.597
89.04	0.157
89.26	0.844
89.48	0.248
89.7	1.02
89.92	0.271
