Measurement: Powder, Xray Data XY Processed
Mineral: Gillespite
Rruff sample: R061031
Ideal chemistry: BaFe^2+^Si_4_O_10_
Locality: La Madrelena mine, Tres Pozos, Municipio de Tecate, Baja California Norte, Mexico
Source: Michael Scott
Description: Rose-red cleavage fragment embedded in white sanbornite
Diffraction sample description: Powder
Measured chemistry: Ba_1.00_Fe^2+^_1.00_(Si_3.97_Ti_0.03_)_Σ=4_O_10_ ; = host gray phase : (Ba_0.99_K_0.01_)(Al_0.97_Fe^3+^_0.02_Ti_0.01_)_Σ=2_Si_2.00_O_8_ ; = lighter gray inclusion = celsian ; Ba_1.00_CO_3_ = lightest areas = witherite
Cell parameters: a: 7.5202(5) b: 7.5202(5) c: 16.0863(5) alpha: 90 beta: 90 gamma: 90 volume: 909.7(1) crystal system: tetragonal
x	intensity
5	0
5.22	20.4219
5.44	5.24901
5.66	0.644583
5.88	12.689
6.1	10.6364
6.32	10.5223
6.54	11.1758
6.76	4.76488
6.98	6.6723
7.2	8.72549
7.42	8.34109
7.64	6.56249
7.86	22.8474
8.08	1.48686
8.3	8.95848
8.52	23.0249
8.74	1.9628
8.96	7.85647
9.18	1.15163
9.4	1.93483
9.62	16.3589
9.84	12.7221
10.06	4.26788
10.28	10.733
10.5	14.7922
10.72	15.3333
10.94	230.397
11.16	47.8203
11.38	17.0126
11.6	1.97176
11.82	8.44559
12.04	3.97812
12.26	5.38282
12.48	12.6975
12.7	1.9732
12.92	15.1913
13.14	9.50106
13.36	21.5127
13.58	16.8373
13.8	10.3477
14.02	2.73991
14.24	1.17873
14.46	1.3399
14.68	11.7069
14.9	0.816015
15.12	12.9521
15.34	8.91459
15.56	5.73181
15.78	2.49985
16	7.72986
16.22	12.0101
16.44	12.1833
16.66	22.1567
16.88	13.1979
17.1	3.30847
17.32	3.79901
17.54	0.423035
17.76	4.28225
17.98	0.898422
18.2	2.89018
18.42	0.249969
18.64	5.09072
18.86	14.8089
19.08	9.48462
19.3	13.1896
19.52	11.0201
19.74	11.1508
19.96	51.2336
20.18	22.735
20.4	1.91832
20.62	16.7193
20.84	6.57476
21.06	0.662357
21.28	7.74122
21.5	4.60796
21.72	4.35045
21.94	1.6001
22.16	208.694
22.38	9.77045
22.6	3.30697
22.82	9.0202
23.04	2.26371
23.26	1.79003
23.48	3.67798
23.7	4.10397
23.92	9.56234
24.14	2.05356
24.36	9.80656
24.58	2.95891
24.8	4.89042
25.02	46.6429
25.24	74.7471
25.46	7.04272
25.68	11.6562
25.9	1.52437
26.12	64.6349
26.34	41.2693
26.56	24.0069
26.78	8.90956
27	19.7538
27.22	4.2236
27.44	14.5011
27.66	41.8592
27.88	189.347
28.1	4.33283
28.32	8.31006
28.54	5.57378
28.76	26.1134
28.98	13.0377
29.2	7.9416
29.42	5.4984
29.64	12.4441
29.86	5.11528
30.08	7.91935
30.3	5.83738
30.52	6.0003
30.74	10.3973
30.96	8.16908
31.18	1.43441
31.4	10.9185
31.62	0.862982
31.84	12.7285
32.06	6.55355
32.28	9.43871
32.5	19.524
32.72	48.2848
32.94	7.87893
33.16	6.4515
33.38	45.2878
33.6	37.2272
33.82	22.5586
34.04	19.2089
34.26	6.94985
34.48	5.79934
34.7	14.7523
34.92	20.6885
35.14	9.46877
35.36	9.87336
35.58	22.0268
35.8	12.2549
36.02	5.36864
36.24	14.4975
36.46	18.0715
36.68	6.76703
36.9	3.35853
37.12	11.9262
37.34	21.8219
37.56	187.226
37.78	34.4667
38	7.41258
38.22	8.59979
38.44	10.7036
38.66	13.8081
38.88	13.7801
39.1	5.27715
39.32	9.48083
39.54	19.6561
39.76	11.2849
39.98	1.64533
40.2	13.1795
40.42	13.1481
40.64	2.0693
40.86	8.19176
41.08	6.38878
41.3	17.7157
41.52	11.6278
41.74	9.03397
41.96	5.36368
42.18	4.24534
42.4	5.58613
42.62	10.4384
42.84	7.09359
43.06	10.7086
43.28	3.21726
43.5	0.156334
43.72	13.5012
43.94	10.6513
44.16	12.1338
44.38	21.0008
44.6	14.2626
44.82	1.42663
45.04	95.98
45.26	65.4089
45.48	15.5162
45.7	9.64673
45.92	15.5786
46.14	6.54124
46.36	4.59476
46.58	12.4179
46.8	92.3879
47.02	19.1113
47.24	12.7478
47.46	6.66909
47.68	0.69606
47.9	16.421
48.12	21.5673
48.34	42.7725
48.56	51.3952
48.78	2.71343
49	5.13953
49.22	7.00224
49.44	21.7931
49.66	16.0388
49.88	8.587
50.1	2.4058
50.32	10.1627
50.54	4.17167
50.76	4.27057
50.98	4.8765
51.2	25.1242
51.42	27.5451
51.64	29.8114
51.86	9.57858
52.08	16.8024
52.3	2.71752
52.52	12.9744
52.74	25.2414
52.96	11.4569
53.18	5.21258
53.4	2.09162
53.62	9.95219
53.84	4.83162
54.06	16.8428
54.28	14.6012
54.5	10.405
54.72	4.0819
54.94	11.8253
55.16	5.66682
55.38	10.6956
55.6	6.63708
55.82	7.7364
56.04	12.6771
56.26	3.59145
56.48	4.34259
56.7	9.58854
56.92	7.02705
57.14	2.74341
57.36	10.4851
57.58	0.589527
57.8	11.9007
58.02	6.41894
58.24	16.6275
58.46	4.387
58.68	8.38794
58.9	20.224
59.12	5.75079
59.34	1.96778
59.56	10.3026
59.78	13.2941
60	16.1705
60.22	35.1814
60.44	11.1112
60.66	15.78
60.88	2.00189
61.1	10.1292
61.32	17.1883
61.54	2.60678
61.76	10.6727
61.98	23.5176
62.2	4.27506
62.42	9.03688
62.64	31.623
62.86	103.183
63.08	42.8388
63.3	4.7992
63.52	3.92541
63.74	14.2097
63.96	10.8262
64.18	0.785872
64.4	21.5759
64.62	18.8123
64.84	7.01124
65.06	10.9357
65.28	8.72817
65.5	0.763424
65.72	13.0824
65.94	5.10704
66.16	6.28447
66.38	6.82896
66.6	13.5323
66.82	10.2775
67.04	1.1102
67.26	14.8744
67.48	8.79121
67.7	7.85184
67.92	6.60867
68.14	24.1176
68.36	20.5839
68.58	15.2599
68.8	9.91594
69.02	7.62765
69.24	19.365
69.46	2.16242
69.68	19.0076
69.9	3.48724
70.12	34.8395
70.34	41.7617
70.56	14.1196
70.78	4.36871
71	13.3685
71.22	8.83618
71.44	14.0352
71.66	16.2287
71.88	10.5028
72.1	6.09522
72.32	13.3147
72.54	0.375362
72.76	11.969
72.98	29.1548
73.2	17.4837
73.42	20.4937
73.64	6.71392
73.86	6.95665
74.08	10.1098
74.3	10.8531
74.52	6.98777
74.74	3.51726
74.96	14.6853
75.18	16.3325
75.4	10.0914
75.62	11.9089
75.84	6.04071
76.06	0.997091
76.28	1.11409
76.5	2.49386
76.72	9.77593
76.94	7.92863
77.16	16.7987
77.38	8.74938
77.6	15.8079
77.82	11.5351
78.04	1.64708
78.26	13.159
78.48	19.0325
78.7	3.93007
78.92	6.23701
79.14	1.63789
79.36	2.06192
79.58	10.5892
79.8	19.29
80.02	10.1131
80.24	5.88725
80.46	24.8937
80.68	13.0361
80.9	6.10964
81.12	11.2422
81.34	11.7171
81.56	7.83361
81.78	16.9383
82	3.12857
82.22	5.57446
82.44	21.0699
82.66	14.8257
82.88	21.1579
83.1	17.1882
83.32	3.86717
83.54	2.83754
83.76	0.268902
83.98	8.76748
84.2	15.6918
84.42	23.2574
84.64	20.5011
84.86	4.85051
85.08	0.740377
85.3	8.08407
85.52	4.93586
85.74	8.96094
85.96	5.55353
86.18	3.81353
86.4	3.98098
86.62	31.2399
86.84	3.80421
87.06	10.5115
87.28	9.10894
87.5	6.33281
87.72	9.00857
87.94	2.19605
88.16	7.45335
88.38	14.3697
88.6	14.2995
88.82	10.7767
89.04	5.84099
89.26	6.52229
89.48	17.4802
89.7	0.992548
89.92	7.53505
