Measurement: Powder, Xray Data XY Processed
Mineral: Gillespite
Rruff sample: R060060
Ideal chemistry: BaFe^2+^Si_4_O_10_
Locality: Incline, California, USA
Source: University of Arizona Mineral Museum
Description: Salmon-red platelets associated with white sanbornite
Diffraction sample description: Powder
Measured chemistry: Ba_1.00_(Fe^2+^_0.99_Fe^3+^_0.01_)_Σ=1_(Si_3.99_Al_0.01_)_Σ=4_O_10_
Cell parameters: a: 7.5169(7) b: 7.5169(7) c: 16.0814(7) alpha: 90 beta: 90 gamma: 90 volume: 908.7(2) crystal system: tetragonal
x	intensity
5	0
5.22	10.037
5.44	9.097
5.66	9.919
5.88	7.034
6.1	10.181
6.32	13.571
6.54	15.046
6.76	5.365
6.98	6.122
7.2	6.754
7.42	11.246
7.64	6.013
7.86	4.561
8.08	1.122
8.3	17.727
8.52	15.615
8.74	2.713
8.96	1.39
9.18	3.44
9.4	9.148
9.62	14.815
9.84	12.546
10.06	8.037
10.28	10.446
10.5	0.239
10.72	4.762
10.94	110.933
11.16	33.551
11.38	11.06
11.6	2.3
11.82	11.355
12.04	2.731
12.26	8.109
12.48	6.427
12.7	6.189
12.92	5.7
13.14	1.769
13.36	7.066
13.58	2.83
13.8	5.681
14.02	2.52
14.24	11.64
14.46	14.163
14.68	7.25
14.9	5.618
15.12	6.24
15.34	7.035
15.56	2.996
15.78	8.875
16	8.75
16.22	15.599
16.44	6.098
16.66	13.082
16.88	1.66
17.1	3.889
17.32	0.507
17.54	5.05
17.76	7.058
17.98	11.053
18.2	2.265
18.42	8.377
18.64	3.556
18.86	7.125
19.08	4.018
19.3	1.936
19.52	3.458
19.74	11.623
19.96	30.315
20.18	24.605
20.4	6.944
20.62	4.711
20.84	7.707
21.06	3.562
21.28	7.558
21.5	13.572
21.72	1.545
21.94	9.537
22.16	97.621
22.38	11.445
22.6	5.11
22.82	6.05
23.04	6.085
23.26	6.949
23.48	8.075
23.7	10.909
23.92	1.599
24.14	11.213
24.36	4.694
24.58	11.1
24.8	12.528
25.02	9.952
25.24	48.075
25.46	14.94
25.68	13.207
25.9	2.525
26.12	20.228
26.34	16.291
26.56	20.623
26.78	5.713
27	8.364
27.22	0.922
27.44	4.944
27.66	21.202
27.88	163.46
28.1	18.674
28.32	1.717
28.54	15.695
28.76	28.903
28.98	25.051
29.2	2.878
29.42	20.343
29.64	0.355
29.86	0.632
30.08	7.236
30.3	3.906
30.52	8.038
30.74	7.135
30.96	2.007
31.18	10.263
31.4	2.169
31.62	3.032
31.84	6.52
32.06	6.138
32.28	4.421
32.5	7.75
32.72	41.83
32.94	4.656
33.16	4.615
33.38	26.779
33.6	19.732
33.82	33.102
34.04	3.613
34.26	6.688
34.48	6.995
34.7	9.23
34.92	7.623
35.14	7.101
35.36	6.238
35.58	18.262
35.8	6.185
36.02	2.738
36.24	9.585
36.46	5.112
36.68	4.389
36.9	1.243
37.12	7.415
37.34	10.2
37.56	115.858
37.78	26.662
38	6.774
38.22	11.895
38.44	6.04
38.66	5.171
38.88	4.627
39.1	8.936
39.32	6.324
39.54	18.017
39.76	16.098
39.98	11.386
40.2	1.505
40.42	4.469
40.64	7.744
40.86	10.908
41.08	5.949
41.3	4.974
41.52	2.959
41.74	9.106
41.96	5.083
42.18	0.003
42.4	7.88
42.62	11.123
42.84	7.071
43.06	12.501
43.28	11.072
43.5	4.781
43.72	4.305
43.94	6.876
44.16	14.271
44.38	17.632
44.6	0.402
44.82	4.849
45.04	33.817
45.26	22.447
45.48	5.963
45.7	3.195
45.92	14.302
46.14	5.569
46.36	5.726
46.58	7.89
46.8	57.406
47.02	16.252
47.24	2.766
47.46	8.53
47.68	23.991
47.9	4.145
48.12	4.744
48.34	34.244
48.56	31.168
48.78	10.353
49	4.285
49.22	18.686
49.44	5.254
49.66	1.043
49.88	10.146
50.1	6.218
50.32	7.063
50.54	3.144
50.76	11.791
50.98	8.877
51.2	2.101
51.42	19.302
51.64	14.362
51.86	2.58
52.08	1.585
52.3	5.547
52.52	7.832
52.74	0.862
52.96	4.892
53.18	2.746
53.4	4.519
53.62	7.767
53.84	15.459
54.06	7.55
54.28	5.563
54.5	4.431
54.72	0.34
54.94	5.054
55.16	3
55.38	3.097
55.6	3.042
55.82	14.017
56.04	6.656
56.26	12.69
56.48	5.518
56.7	3.72
56.92	6.219
57.14	6.599
57.36	12.799
57.58	9.859
57.8	12.942
58.02	4.305
58.24	11.484
58.46	3.392
58.68	6.266
58.9	8.279
59.12	11.601
59.34	7.017
59.56	13.921
59.78	3.929
60	6.91
60.22	24.233
60.44	12.943
60.66	1.807
60.88	8.679
61.1	11.963
61.32	1.929
61.54	5.936
61.76	12.975
61.98	0.682
62.2	9.918
62.42	13.64
62.64	14.581
62.86	51.563
63.08	17.086
63.3	5.473
63.52	15.218
63.74	12.319
63.96	12.469
64.18	11.779
64.4	9.954
64.62	4.815
64.84	7.199
65.06	4.014
65.28	0.868
65.5	9.811
65.72	14.479
65.94	10.641
66.16	5.769
66.38	0.098
66.6	5.692
66.82	8.697
67.04	10.569
67.26	9.241
67.48	7.34
67.7	12.338
67.92	10.761
68.14	13.083
68.36	12.895
68.58	2.129
68.8	3.238
69.02	3.904
69.24	6.664
69.46	12.532
69.68	1.434
69.9	1.945
70.12	17.779
70.34	7.656
70.56	8.933
70.78	12.252
71	3.983
71.22	1.958
71.44	9.753
71.66	17.009
71.88	6.456
72.1	2.728
72.32	8.905
72.54	5.079
72.76	10.388
72.98	9.158
73.2	16.797
73.42	12.588
73.64	2.623
73.86	3.139
74.08	0.11
74.3	7.826
74.52	4.737
74.74	5.153
74.96	2.115
75.18	6.211
75.4	5.366
75.62	3.412
75.84	9.482
76.06	3.435
76.28	7.783
76.5	5.816
76.72	4.901
76.94	11.604
77.16	9.627
77.38	4.435
77.6	4.732
77.82	10.299
78.04	7.382
78.26	11.399
78.48	9.489
78.7	16.033
78.92	1.077
79.14	21.759
79.36	5.574
79.58	13.383
79.8	23.373
80.02	7.152
80.24	5.594
80.46	12.461
80.68	9.462
80.9	11.762
81.12	3.688
81.34	14.646
81.56	6.61
81.78	5.589
82	1.222
82.22	10.496
82.44	6.152
82.66	0.275
82.88	12.271
83.1	24.016
83.32	21.536
83.54	4.729
83.76	4.876
83.98	4.937
84.2	7.133
84.42	12.982
84.64	6.441
84.86	8.92
85.08	20.982
85.3	10.782
85.52	3.96
85.74	15.463
85.96	3.701
86.18	8.703
86.4	12.942
86.62	19.972
86.84	17.083
87.06	7.947
87.28	13.953
87.5	1.994
87.72	10.091
87.94	4.213
88.16	14.108
88.38	11.027
88.6	11.313
88.82	11.527
89.04	8.882
89.26	3.965
89.48	10.261
89.7	8.95
89.92	15.383
