Measurement: Powder, Xray Data XY Processed
Mineral: Glauberite
Rruff sample: R050350
Ideal chemistry: Na_2_Ca(S^6+^O_4_)_2_
Locality: Soda Lake, San Luis Obispo County, California, USA
Source: California Institute of Technology
Description: Colorless tabular crystal
Diffraction sample description: Powder
Measured chemistry: Na_1.90_Ca_1.15_(S_.99_O_4_)_2_
Cell parameters: a: 10.135(1) b: 8.3046(8) c: 8.539(2) alpha: 90. beta: 112.21(2) gamma: 90. volume: 665.3(1) crystal system: monoclinic
x	intensity
5	0
5.22	10.3104
5.44	11.054
5.66	2.55976
5.88	4.4367
6.1	7.54282
6.32	13.9091
6.54	14.3275
6.76	10.6471
6.98	12.0051
7.2	2.60286
7.42	4.68286
7.64	2.3351
7.86	3.48832
8.08	3.15888
8.3	3.94947
8.52	6.55944
8.74	6.13825
8.96	5.49831
9.18	9.63794
9.4	5.01948
9.62	5.21007
9.84	1.10031
10.06	8.26022
10.28	8.92273
10.5	3.13686
10.72	7.35561
10.94	4.70357
11.16	3.92632
11.38	6.99435
11.6	10.1511
11.82	6.07103
12.04	4.29756
12.26	7.26032
12.48	5.66767
12.7	8.72427
12.92	6.661
13.14	6.41943
13.36	4.17533
13.58	1.93622
13.8	4.89062
14.02	6.01149
14.24	35.066
14.46	3.14071
14.68	12.1686
14.9	7.87689
15.12	5.07942
15.34	0.741506
15.56	6.5
15.78	3.66937
16	2.84084
16.22	0.910895
16.44	4.20861
16.66	6.35457
16.88	3.2692
17.1	6.32725
17.32	0.445916
17.54	4.40951
17.76	4.17684
17.98	4.03845
18.2	0.930565
18.42	4.26342
18.64	2.97009
18.86	13.873
19.08	15.6792
19.3	7.66694
19.52	2.93837
19.74	4.81565
19.96	1.80297
20.18	23.1825
20.4	77.1319
20.62	1.35778
20.84	1.80098
21.06	5.69663
21.28	5.62314
21.5	19.4172
21.72	4.26977
21.94	4.78388
22.16	3.52829
22.38	7.43112
22.6	316.024
22.82	1.36364
23.04	1.18474
23.26	0.458826
23.48	25.8417
23.7	4.11742
23.92	1.47637
24.14	6.00597
24.36	5.45093
24.58	0.857524
24.8	2.04851
25.02	7.30645
25.24	5.1441
25.46	7.16027
25.68	1.98996
25.9	5.912
26.12	1.02906
26.34	1.84962
26.56	7.51844
26.78	3.03842
27	4.67038
27.22	6.49819
27.44	1.15084
27.66	5.89474
27.88	9.69951
28.1	105.157
28.32	25.4454
28.54	103.934
28.76	178.787
28.98	5.6425
29.2	6.83243
29.42	2.62765
29.64	18.4151
29.86	19.1928
30.08	4.97323
30.3	1.22422
30.52	0.002482
30.74	10.2434
30.96	4.24804
31.18	13.577
31.4	70.5926
31.62	0.020492
31.84	58.9079
32.06	27.4468
32.28	4.91749
32.5	3.40537
32.72	1.89586
32.94	5.46544
33.16	0.004566
33.38	31.4674
33.6	110.437
33.82	8.65737
34.04	0.601255
34.26	6.08734
34.48	2.12678
34.7	2.08511
34.92	3.23819
35.14	5.17268
35.36	5.81176
35.58	2.80946
35.8	1.61062
36.02	2.61662
36.24	14.7294
36.46	44.896
36.68	4.08863
36.9	7.9884
37.12	12.0624
37.34	0.012006
37.56	4.09178
37.78	1.17746
38	4.39037
38.22	1.81442
38.44	35.8588
38.66	5.88719
38.88	12.8178
39.1	1.73954
39.32	7.87588
39.54	1.14697
39.76	4.79421
39.98	7.73335
40.2	5.65069
40.42	2.84995
40.64	2.66959
40.86	2.42436
41.08	4.36772
41.3	19.0799
41.52	6.95494
41.74	5.7499
41.96	5.79848
42.18	16.6888
42.4	9.00608
42.62	10.8765
42.84	8.02149
43.06	7.55623
43.28	9.38693
43.5	2.92748
43.72	37.8576
43.94	7.67596
44.16	2.12707
44.38	5.7955
44.6	37.4772
44.82	1.19412
45.04	4.80339
45.26	37.708
45.48	39.0002
45.7	1.17275
45.92	3.71872
46.14	6.14747
46.36	17.3009
46.58	9.57972
46.8	0.935404
47.02	3.24014
47.24	3.67019
47.46	11.1208
47.68	27.4064
47.9	7.4829
48.12	18.0999
48.34	7.66222
48.56	1.36219
48.78	3.16493
49	1.04285
49.22	2.88715
49.44	2.83187
49.66	23.4337
49.88	16.8817
50.1	9.60157
50.32	12.609
50.54	1.6672
50.76	26.8108
50.98	15.49
51.2	30.0276
51.42	42.2472
51.64	9.62192
51.86	4.13321
52.08	5.79289
52.3	3.36327
52.52	3.74167
52.74	1.10762
52.96	8.34307
53.18	1.45405
53.4	1.87052
53.62	1.9597
53.84	5.89511
54.06	1.78216
54.28	7.82838
54.5	10.5168
54.72	6.28095
54.94	19.2466
55.16	8.09438
55.38	7.94516
55.6	2.83382
55.82	2.20575
56.04	3.65357
56.26	6.62663
56.48	12.6344
56.7	24.9566
56.92	18.1687
57.14	17.1412
57.36	10.0278
57.58	5.08093
57.8	1.20491
58.02	5.21478
58.24	1.18175
58.46	1.16964
58.68	4.02753
58.9	5.14959
59.12	12.6417
59.34	11.6372
59.56	3.64932
59.78	3.6469
60	0.700021
60.22	0.769448
60.44	7.98544
60.66	2.14884
60.88	2.65137
61.1	2.93504
61.32	8.80557
61.54	1.99212
61.76	3.82875
61.98	1.8868
62.2	12.9688
62.42	5.90929
62.64	2.90861
62.86	0.859343
63.08	2.88082
63.3	3.5543
63.52	7.22592
63.74	2.10924
63.96	4.84431
64.18	0.604801
64.4	8.37062
64.62	20.4237
64.84	16.3055
65.06	9.00913
65.28	9.95454
65.5	8.8056
65.72	3.18061
65.94	7.94915
66.16	13.2578
66.38	8.63674
66.6	4.92633
66.82	1.40739
67.04	2.35352
67.26	1.61653
67.48	2.89946
67.7	4.18018
67.92	1.38712
68.14	10.6166
68.36	4.62491
68.58	0.764727
68.8	0.284691
69.02	2.74403
69.24	0.474464
69.46	3.36536
69.68	2.29308
69.9	4.12908
70.12	1.00593
70.34	9.01964
70.56	11.9886
70.78	10.0859
71	5.89186
71.22	5.84823
71.44	0.994504
71.66	7.00747
71.88	4.01001
72.1	7.00311
72.32	9.20425
72.54	16.3866
72.76	15.2175
72.98	13.0229
73.2	2.78315
73.42	6.81765
73.64	4.72067
73.86	5.67273
74.08	5.80455
74.3	11.0037
74.52	3.10325
74.74	1.05079
74.96	4.82023
75.18	5.84177
75.4	3.84789
75.62	9.0115
75.84	5.97617
76.06	6.82624
76.28	0.695373
76.5	2.4968
76.72	2.3122
76.94	7.41327
77.16	9.41231
77.38	8.37012
77.6	1.33775
77.82	7.46432
78.04	8.39189
78.26	0.597726
78.48	0.465312
78.7	5.65472
78.92	1.85305
79.14	4.87258
79.36	5.7624
79.58	7.07226
79.8	4.43529
80.02	5.49287
80.24	3.42048
80.46	0.34178
80.68	4.37404
80.9	3.42233
81.12	1.26691
81.34	1.16475
81.56	25.0976
81.78	14.2765
82	12.921
82.22	0.358619
82.44	5.5235
82.66	1.47249
82.88	0.527014
83.1	4.53236
83.32	6.48404
83.54	10.5173
83.76	4.47488
83.98	2.93388
84.2	5.11983
84.42	3.13826
84.64	2.13066
84.86	3.21399
85.08	6.28352
85.3	0.266788
85.52	5.23232
85.74	12.4654
85.96	8.4518
86.18	7.42587
86.4	7.01679
86.62	2.79239
86.84	4.81143
87.06	3.98899
87.28	4.10808
87.5	7.24931
87.72	2.36638
87.94	3.40067
88.16	1.40581
88.38	9.48289
88.6	4.52393
88.82	4.49608
89.04	3.69686
89.26	4.53622
89.48	11.4389
89.7	5.03161
89.92	7.90509
