Measurement: Powder, Xray Data XY Processed
Mineral: Gmelinite-Na
Rruff sample: R060168
Ideal chemistry: Na_4_(Si_8_Al_4_)O_24_11H_2_O
Locality: Five Islands, Nova Scotia, Canada
Source: Guy Ouellet
Description: Salmon-red interpenetrating prismatic rhombohedral crystals
Diffraction sample description: Powder
Measured chemistry: (Na_3.90_Ca_0.10_)(Si_7.90_Al_4.10_)O_24_Â·8.98H_2_O
Cell parameters: a: 13.7401(5) b: 13.7401(5) c: 10.0488(5) alpha: 90 beta: 90 gamma: 120 volume: 1643.0(0) crystal system: hexagonal
x	intensity
5	0
5.22	13.922
5.44	8.352
5.66	15.037
5.88	15.683
6.1	6.612
6.32	19.88
6.54	1.287
6.76	14.834
6.98	7.221
7.2	15.297
7.42	769.091
7.64	14.688
7.86	2.588
8.08	5.715
8.3	3.801
8.52	1.775
8.74	7.782
8.96	8.856
9.18	0.595
9.4	4.023
9.62	2.837
9.84	12.251
10.06	2.326
10.28	6.403
10.5	0.841
10.72	3.017
10.94	8.03
11.16	3.033
11.38	17.533
11.6	162.371
11.82	11.263
12.04	7.13
12.26	2.999
12.48	4.983
12.7	9.83
12.92	250.17
13.14	9.278
13.36	9.239
13.58	4.006
13.8	7.08
14.02	9.111
14.24	6.004
14.46	6.885
14.68	11.898
14.9	54.787
15.12	2.094
15.34	1.718
15.56	0.689
15.78	4.734
16	9.553
16.22	2.432
16.44	9.364
16.66	2.383
16.88	5.393
17.1	5.357
17.32	136.393
17.54	6.108
17.76	39.246
17.98	7.017
18.2	3.771
18.42	6.857
18.64	4.887
18.86	16.78
19.08	9.033
19.3	9.495
19.52	23.28
19.74	160.225
19.96	10.012
20.18	7.749
20.4	0.508
20.62	2.767
20.84	5.954
21.06	18.887
21.28	9.765
21.5	23.701
21.72	412.468
21.94	28.379
22.16	8.518
22.38	7.729
22.6	8.141
22.82	16.733
23.04	0.019
23.26	3.313
23.48	9.816
23.7	10.221
23.92	7.894
24.14	7.489
24.36	1.803
24.58	7.487
24.8	11.207
25.02	13.771
25.24	1.348
25.46	10.239
25.68	5.998
25.9	22.26
26.12	6.553
26.34	10.434
26.56	13.958
26.78	13.046
27	22.451
27.22	11.892
27.44	5.068
27.66	216.232
27.88	19.403
28.1	3.769
28.32	4.449
28.54	7.212
28.76	13.628
28.98	2.171
29.2	5.734
29.42	14.557
29.64	2.215
29.86	20.283
30.08	249.321
30.3	17.175
30.52	15.714
30.74	52.814
30.96	1.004
31.18	4.973
31.4	263.544
31.62	19.818
31.84	1.585
32.06	10.032
32.28	1.817
32.5	4.217
32.72	6.686
32.94	14.013
33.16	12.117
33.38	237.873
33.6	7.129
33.82	9.223
34.04	31.504
34.26	10.996
34.48	16.45
34.7	7.89
34.92	10.888
35.14	14.148
35.36	12.484
35.58	2.153
35.8	14.636
36.02	2.831
36.24	10.263
36.46	13.834
36.68	7.741
36.9	5.699
37.12	2.647
37.34	7.029
37.56	20.364
37.78	5.347
38	8.95
38.22	5.892
38.44	6.2
38.66	4.337
38.88	32.746
39.1	11.872
39.32	8.99
39.54	11.466
39.76	5.801
39.98	2.695
40.2	15.942
40.42	11.965
40.64	6.194
40.86	7.552
41.08	4.091
41.3	4.179
41.52	5.973
41.74	7.676
41.96	14.436
42.18	12.88
42.4	4.666
42.62	9.646
42.84	7.846
43.06	5.579
43.28	15.856
43.5	44.123
43.72	0.604
43.94	10.012
44.16	21.297
44.38	0.471
44.6	5.748
44.82	2.186
45.04	5.092
45.26	5.373
45.48	5.757
45.7	5.863
45.92	14.676
46.14	13.543
46.36	3.04
46.58	5.325
46.8	30.492
47.02	11.89
47.24	0.438
47.46	3.023
47.68	11.026
47.9	21.282
48.12	11.53
48.34	3.577
48.56	2.924
48.78	13.619
49	7.561
49.22	6.541
49.44	9.292
49.66	19.719
49.88	9.496
50.1	5.486
50.32	7.715
50.54	45.662
50.76	15.026
50.98	2.139
51.2	15.429
51.42	4.357
51.64	7.538
51.86	1.928
52.08	2.766
52.3	13.828
52.52	9.819
52.74	8.297
52.96	15.21
53.18	14.599
53.4	22.893
53.62	9.539
53.84	10.508
54.06	1.397
54.28	16.268
54.5	13.284
54.72	4.436
54.94	6.966
55.16	4.155
55.38	12.456
55.6	6.558
55.82	13.778
56.04	11.064
56.26	4.805
56.48	18.048
56.7	0.104
56.92	3.305
57.14	6.351
57.36	8.151
57.58	11.626
57.8	29.651
58.02	8.694
58.24	8.457
58.46	3.428
58.68	2.351
58.9	10.316
59.12	5.74
59.34	4.677
59.56	3.666
59.78	9.641
60	3.172
60.22	10.436
60.44	6.436
60.66	7.585
60.88	7.894
61.1	5.883
61.32	11.032
61.54	16.896
61.76	7.975
61.98	2.049
62.2	5.301
62.42	11.343
62.64	11.47
62.86	18.469
63.08	6.366
63.3	16.97
63.52	6.762
63.74	19.681
63.96	6.754
64.18	1.009
64.4	3.166
64.62	2.721
64.84	5.984
65.06	4.887
65.28	17.703
65.5	0.459
65.72	12.266
65.94	8.168
66.16	3.93
66.38	24.635
66.6	15.203
66.82	5.992
67.04	6.599
67.26	10.654
67.48	28.743
67.7	7.29
67.92	0.316
68.14	6.108
68.36	1.524
68.58	5.724
68.8	5.046
69.02	9.61
69.24	5.809
69.46	8.088
69.68	10.948
69.9	1.776
70.12	6.798
70.34	2.483
70.56	5.278
70.78	10.966
71	17.203
71.22	17.351
71.44	5.918
71.66	10.685
71.88	2.451
72.1	6.388
72.32	1.55
72.54	4.333
72.76	2.305
72.98	3.29
73.2	9.404
73.42	11.096
73.64	3.137
73.86	2.656
74.08	12.174
74.3	13.664
74.52	2.083
74.74	0.852
74.96	8.521
75.18	2.677
75.4	6.777
75.62	6.801
75.84	1.793
76.06	0.36
76.28	0.481
76.5	9.06
76.72	13.836
76.94	2.901
77.16	8.883
77.38	2.975
77.6	5.152
77.82	9.347
78.04	4.339
78.26	2.305
78.48	3.45
78.7	3.185
78.92	1.134
79.14	9.855
79.36	4.59
79.58	5.705
79.8	2.584
80.02	12.536
80.24	13.807
80.46	7.004
80.68	13.285
80.9	0.279
81.12	8.377
81.34	7.495
81.56	12.573
81.78	11.659
82	13.557
82.22	7.532
82.44	12.044
82.66	6.693
82.88	8.747
83.1	3.751
83.32	7.964
83.54	0.854
83.76	4.298
83.98	6.349
84.2	1.364
84.42	2.572
84.64	6.212
84.86	8.097
85.08	3.168
85.3	12.098
85.52	5.075
85.74	3.702
85.96	7.595
86.18	2.582
86.4	1.427
86.62	7.379
86.84	11.267
87.06	7.123
87.28	0.775
87.5	8.325
87.72	7.484
87.94	8.624
88.16	2.769
88.38	1.231
88.6	8.467
88.82	11.565
89.04	13.053
89.26	9.364
89.48	5.433
89.7	6.399
89.92	7.23
