Measurement: Powder, Xray Data XY Processed
Mineral: Gorceixite
Rruff sample: R060158
Ideal chemistry: BaAl_3_(PO_4_)(PO_3_OH)(OH)_6_
Locality: 16 miles north of the Hess River, Mayo Mining District, Yukon Territory, Canada
Source: Mark Mauthner
Description: Aggregate of purple-grey colored crystals imbedded in a matrix of quartz and penikisite R060160
Diffraction sample description: Single crystal, powder profile is calculated
Measured chemistry: (Ba_0.91_Sr_0.09_)_Σ=1_Al_3.00_(P_1.00_O_4_)(P_1.00_O_3_OH)((OH)_5.50_F_0.50_)_Σ=6_ ; = lighter phase. The darker gray phase  (Ba_0.75_Sr_0.25_)_Σ=1_Al_3.00_(P_1.00_O_4_)(P_1.00_O_3_OH)((OH)_5.53_F_0.47_)_Σ=6_ ; H not measured but estimated by differe
Cell parameters: a: 12.16(1) b: 7.007(5) c: 7.025(7) alpha: 90 beta: 125.27(4) gamma: 90 volume: 488.8(2) crystal system: monoclinic
x	intensity
5	0
5.22	0
5.44	0
5.66	0
5.88	0
6.1	0
6.32	0
6.54	0
6.76	0
6.98	0
7.2	0
7.42	0
7.64	0
7.86	0
8.08	0
8.3	0
8.52	0
8.74	0
8.96	0
9.18	0
9.4	0
9.62	0
9.84	0
10.06	0
10.28	0
10.5	0
10.72	0
10.94	0
11.16	0
11.38	0
11.6	0
11.82	0
12.04	0
12.26	0
12.48	0
12.7	0
12.92	0
13.14	0
13.36	0
13.58	0
13.8	0
14.02	0
14.24	0
14.46	0
14.68	0
14.9	0
15.12	0
15.34	0.061
15.56	3.668
15.78	0
16	0
16.22	0
16.44	0
16.66	0
16.88	0
17.1	0
17.32	0
17.54	0
17.76	0.001
17.98	0.009
18.2	0
18.42	0
18.64	0
18.86	0
19.08	0
19.3	0
19.52	0
19.74	0
19.96	0
20.18	0
20.4	0
20.62	0
20.84	0
21.06	0
21.28	0
21.5	0
21.72	0
21.94	0
22.16	0
22.38	0
22.6	0
22.82	0
23.04	0
23.26	0
23.48	0
23.7	0
23.92	0
24.14	0
24.36	0
24.58	0
24.8	0
25.02	0
25.24	0.036
25.46	17.359
25.68	0
25.9	0
26.12	0
26.34	0
26.56	0
26.78	0
27	0
27.22	0
27.44	0
27.66	0
27.88	0
28.1	0
28.32	0
28.54	0
28.76	0
28.98	0
29.2	0
29.42	0
29.64	0
29.86	75.728
30.08	0
30.3	0
30.52	0
30.74	0
30.96	0
31.18	13.903
31.4	0.014
31.62	0
31.84	0
32.06	0
32.28	0
32.5	0
32.72	0
32.94	0
33.16	0
33.38	0
33.6	0
33.82	0
34.04	0
34.26	0
34.48	0
34.7	0
34.92	0
35.14	0
35.36	0
35.58	0
35.8	0
36.02	0
36.24	5.293
36.46	0
36.68	0
36.9	0
37.12	0
37.34	0
37.56	0
37.78	0
38	0
38.22	0
38.44	0
38.66	0
38.88	0
39.1	0
39.32	0
39.54	33.697
39.76	0.441
39.98	0
40.2	0
40.42	0
40.64	15.633
40.86	0.13
41.08	0
41.3	0
41.52	0
41.74	0
41.96	0
42.18	0
42.4	0
42.62	0
42.84	0
43.06	0
43.28	0
43.5	0
43.72	0
43.94	0
44.16	0
44.38	0
44.6	1.255
44.82	4.453
45.04	0
45.26	0
45.48	0
45.7	0
45.92	0
46.14	0
46.36	0
46.58	0
46.8	0
47.02	0
47.24	0
47.46	0.522
47.68	9.911
47.9	0
48.12	0
48.34	0
48.56	0
48.78	0
49	0
49.22	0
49.44	0
49.66	0
49.88	0
50.1	0
50.32	0
50.54	0
50.76	0
50.98	0
51.2	0
51.42	0
51.64	0
51.86	0
52.08	13.842
52.3	3.106
52.52	0
52.74	0
52.96	0
53.18	0
53.4	0
53.62	0
53.84	0
54.06	0
54.28	0
54.5	0.009
54.72	4.639
54.94	0.359
55.16	0
55.38	0.203
55.6	1.874
55.82	0.005
56.04	0
56.26	0
56.48	0
56.7	0
56.92	0
57.14	0
57.36	0
57.58	0
57.8	0
58.02	0
58.24	0
58.46	0
58.68	0.016
58.9	0.351
59.12	0.004
59.34	0
59.56	0
59.78	0
60	0
60.22	0
60.44	0
60.66	0
60.88	0
61.1	1.795
61.32	2.007
61.54	0.005
61.76	0
61.98	11.022
62.2	2.734
62.42	0
62.64	0
62.86	0
63.08	0
63.3	0
63.52	0
63.74	0
63.96	0
64.18	0
64.4	0
64.62	0
64.84	0
65.06	0.816
65.28	0.757
65.5	0
65.72	0
65.94	0
66.16	0
66.38	0
66.6	0
66.82	0
67.04	0
67.26	3.638
67.48	3.853
67.7	0.076
67.92	0.093
68.14	0.348
68.36	0.021
68.58	0
68.8	0
69.02	0
69.24	0
69.46	0
69.68	0
69.9	0
70.12	0
70.34	0
70.56	0
70.78	0
71	2.033
71.22	1.034
71.44	0.008
71.66	0
71.88	0
72.1	0
72.32	0
72.54	0
72.76	0
72.98	0.004
73.2	3.799
73.42	1.85
73.64	0.003
73.86	0
74.08	0
74.3	0
74.52	0
74.74	0
74.96	0
75.18	0
75.4	0
75.62	0
75.84	0
76.06	0
76.28	0
76.5	0
76.72	0.3
76.94	0.138
77.16	0
77.38	0
77.6	0
77.82	0
78.04	0
78.26	0
78.48	0
78.7	0.011
78.92	2.418
79.14	1.273
79.36	0.002
79.58	3.193
79.8	1.723
80.02	0.018
80.24	0
80.46	0
80.68	0
80.9	0
81.12	0
81.34	0
81.56	0
81.78	0
82	0
82.22	0.004
82.44	0.847
82.66	0.435
82.88	0.029
83.1	0
83.32	0
83.54	0
83.76	0
83.98	0
84.2	0
84.42	2.771
84.64	1.395
84.86	0.334
85.08	0.454
85.3	0.392
85.52	0.216
85.74	0
85.96	0
86.18	0
86.4	0
86.62	0
86.84	0
87.06	0
87.28	0
87.5	0
87.72	0
87.94	0.431
88.16	0.308
88.38	0.236
88.6	0
88.82	0
89.04	0
89.26	0
89.48	0
89.7	0
89.92	0.474
