Measurement: Powder, Xray Data XY Processed
Mineral: Gormanite
Rruff sample: R050093
Ideal chemistry: Fe^2+^_3_Al_4_(PO_4_)_4_(OH)_6_2H_2_O
Locality: Rapid Creek, Yukon Territory, Canada
Source: Rock Currier
Description: Radial aggregates of blue bladed crystals
Diffraction sample description: Powder
Measured chemistry: (Fe^2+^_1.85_Mg_1.09_Mn_0.06_)_Σ=3_(Al_3.76_Fe^3+^_0.24_)_Σ=4_(P_1.00_O_4_)_4_((OH_5.65_F_0.35_)_Σ=6_·2H_2_O ; (light phase) : (Fe^2+^_1.53_Mg_1.42_Mn_0.05_)_Σ=3_(Al_3.89_Fe^3+^_0.11_)_Σ=4_(P_1.00_O_4_)_4_((OH_5.60_F_0.40_)_Σ=6_·2H_2_O (dark phase
Cell parameters: a: 7.224035(8) b: 11.79773(5) c: 5.11759(2) alpha: 90.3456(3) beta: 109.9792(2) gamma: 81.2907(3) volume: 404.691(1) crystal system: triclinic
x	intensity
5	0
5.22	10.2659
5.44	25.2629
5.66	29.1004
5.88	20.1988
6.1	24.7488
6.32	16.0933
6.54	11.3087
6.76	4.60867
6.98	19.1918
7.2	4.07717
7.42	6.82722
7.64	19.5413
7.86	21.7847
8.08	18.9105
8.3	1.60217
8.52	11.6621
8.74	22.2527
8.96	3.24707
9.18	2.3331
9.4	0.302425
9.62	0.296513
9.84	6.93986
10.06	23.0399
10.28	11.9922
10.5	12.0087
10.72	27.2184
10.94	5.79617
11.16	11.6758
11.38	17.4302
11.6	12.4476
11.82	0.342796
12.04	5.37262
12.26	7.23148
12.48	17.2549
12.7	9.74516
12.92	16.2892
13.14	25.7526
13.36	24.175
13.58	10.7414
13.8	5.5639
14.02	9.51017
14.24	11.8087
14.46	7.76616
14.68	11.8501
14.9	30.3698
15.12	10.7248
15.34	13.0604
15.56	6.58349
15.78	21.0527
16	13.982
16.22	14.4029
16.44	8.23911
16.66	0.408566
16.88	9.27021
17.1	26.402
17.32	3.40005
17.54	12.4708
17.76	1.69034
17.98	2.64191
18.2	9.61928
18.42	17.9755
18.64	39.196
18.86	18.8403
19.08	15.0481
19.3	9.15324
19.52	16.3217
19.74	15.7928
19.96	7.99963
20.18	13.3292
20.4	14.3055
20.62	11.9176
20.84	11.8242
21.06	16.4088
21.28	17.1023
21.5	6.2211
21.72	6.29235
21.94	5.88372
22.16	11.8167
22.38	3.84472
22.6	20.7311
22.82	13.1071
23.04	14.3269
23.26	9.79404
23.48	5.6312
23.7	0.162739
23.92	8.7809
24.14	22.2856
24.36	3.74287
24.58	12.9471
24.8	14.4983
25.02	1.85689
25.24	14.7447
25.46	17.1683
25.68	20.3124
25.9	25.9497
26.12	22.419
26.34	42.9043
26.56	38.6198
26.78	6.35197
27	6.03035
27.22	25.1323
27.44	1.57144
27.66	3.70858
27.88	10.8859
28.1	5.72364
28.32	51.5847
28.54	31.4899
28.76	26.861
28.98	37.4025
29.2	38.6881
29.42	7.55154
29.64	11.5696
29.86	5.81586
30.08	2.92942
30.3	17.9821
30.52	19.1266
30.74	38.3208
30.96	6.74229
31.18	9.1208
31.4	11.1339
31.62	19.1094
31.84	12.3356
32.06	2.51076
32.28	0.556862
32.5	16.5443
32.72	17.5991
32.94	5.51583
33.16	9.1682
33.38	2.37758
33.6	11.7107
33.82	6.39684
34.04	13.3736
34.26	7.11786
34.48	5.95068
34.7	0.642864
34.92	30.2005
35.14	80.4083
35.36	41.6194
35.58	22.0114
35.8	25.7215
36.02	3.21058
36.24	11.9734
36.46	13.6624
36.68	11.2774
36.9	28.8282
37.12	7.47841
37.34	18.1126
37.56	16.2541
37.78	24.0254
38	19.0315
38.22	2.35988
38.44	23.9419
38.66	13.0328
38.88	18.8116
39.1	10.6547
39.32	1.47123
39.54	9.32655
39.76	5.66976
39.98	9.51712
40.2	12.6971
40.42	11.8869
40.64	9.93027
40.86	8.04691
41.08	7.64575
41.3	17.3236
41.52	8.51142
41.74	11.1226
41.96	3.65552
42.18	18.321
42.4	12.3606
42.62	27.4097
42.84	5.59851
43.06	17.8863
43.28	54.2019
43.5	36.5372
43.72	14.1187
43.94	11.6876
44.16	9.93251
44.38	15.2516
44.6	16.0522
44.82	4.70485
45.04	3.43197
45.26	6.57725
45.48	15.1357
45.7	13.1856
45.92	23.5405
46.14	3.95739
46.36	8.88592
46.58	10.201
46.8	16.4216
47.02	15.3134
47.24	23.4153
47.46	10.7298
47.68	14.2832
47.9	20.2857
48.12	22.5634
48.34	10.6445
48.56	7.69712
48.78	24.7419
49	8.54671
49.22	10.2788
49.44	11.9685
49.66	16.8347
49.88	17.5991
50.1	7.77434
50.32	15.7803
50.54	10.2012
50.76	8.65571
50.98	4.42133
51.2	18.3233
51.42	12.2547
51.64	6.36691
51.86	12.4911
52.08	8.36109
52.3	10.8734
52.52	13.7953
52.74	22.8666
52.96	10.5056
53.18	20.5696
53.4	7.79944
53.62	15.9797
53.84	8.9919
54.06	7.22042
54.28	10.331
54.5	6.53466
54.72	1.87228
54.94	11.7903
55.16	3.32351
55.38	19.7542
55.6	21.1303
55.82	9.63954
56.04	2.1954
56.26	17.9933
56.48	13.337
56.7	12.8007
56.92	10.4291
57.14	1.60938
57.36	34.7651
57.58	32.4975
57.8	22.266
58.02	16.3371
58.24	17.356
58.46	10.7417
58.68	5.99016
58.9	2.34869
59.12	19.7126
59.34	12.6801
59.56	12.5896
59.78	12.4063
60	1.87994
60.22	5.08287
60.44	4.42816
60.66	17.2775
60.88	8.81295
61.1	5.36617
61.32	10.9223
61.54	12.4685
61.76	3.70901
61.98	2.15056
62.2	18.8535
62.42	19.5806
62.64	19.4429
62.86	6.31682
63.08	13.2457
63.3	28.2313
63.52	2.93615
63.74	14.5653
63.96	10.1468
64.18	15.0121
64.4	14.4301
64.62	6.48937
64.84	9.3531
65.06	10.0031
65.28	0.071644
65.5	15.8399
65.72	17.5492
65.94	10.8721
66.16	17.1098
66.38	8.3915
66.6	18.9645
66.82	20.0428
67.04	12.8242
67.26	18.8012
67.48	2.14611
67.7	3.92013
67.92	12.1437
68.14	8.2994
68.36	20.1045
68.58	26.4425
68.8	25.4611
69.02	6.6574
69.24	4.75949
69.46	17.9774
69.68	0.352219
69.9	17.7491
70.12	5.89875
70.34	16.9321
70.56	16.2818
70.78	12.3685
71	5.18986
71.22	13.0643
71.44	11.8607
71.66	13.3998
71.88	27.6047
72.1	14.5727
72.32	3.94276
72.54	12.1761
72.76	4.09174
72.98	23.0621
73.2	5.5735
73.42	7.28343
73.64	11.1342
73.86	8.53487
74.08	13.594
74.3	17.189
74.52	13.8752
74.74	21.4566
74.96	4.16819
75.18	5.15865
75.4	0.022511
75.62	17.0206
75.84	5.12614
76.06	6.20412
76.28	7.28214
76.5	11.0253
76.72	8.76341
76.94	10.0605
77.16	13.0063
77.38	14.0544
77.6	5.07618
77.82	0.44574
78.04	6.70608
78.26	11.8955
78.48	6.04151
78.7	0.313957
78.92	3.3008
79.14	12.8004
79.36	21.9616
79.58	17.7895
79.8	17.8501
80.02	8.8684
80.24	7.64428
80.46	12.4524
80.68	5.68821
80.9	4.94664
81.12	2.89888
81.34	8.0875
81.56	17.382
81.78	9.45291
82	17.3793
82.22	12.7721
82.44	8.81543
82.66	7.72681
82.88	5.83761
83.1	6.22734
83.32	0.330898
83.54	7.38748
83.76	11.1509
83.98	7.97856
84.2	9.12504
84.42	10.9422
84.64	0.300381
84.86	17.7508
85.08	6.13885
85.3	11.5122
85.52	7.30923
85.74	4.42038
85.96	12.2833
86.18	4.18328
86.4	9.40045
86.62	10.3062
86.84	18.3047
87.06	0.146126
87.28	6.95597
87.5	15.0243
87.72	27.7459
87.94	15.8742
88.16	14.2098
88.38	25.6433
88.6	19.9438
88.82	8.42299
89.04	5.91049
89.26	15.5546
89.48	6.55949
89.7	5.00271
89.92	12.8941
