Measurement: Powder, Xray Data XY Processed
Mineral: Grandidierite
Rruff sample: R050196
Ideal chemistry: MgAl_3_O_2_(BO_3_)SiO_4_
Locality: Madagascar
Source: Marcus Origlieri
Description: Aggregate of anhedral blue-green crystals
Diffraction sample description: Powder
Measured chemistry: (Mg_0.829_Fe^2+^_0.169_Mn_0.002_)Al_3_(BO_3_)(SiO_4_)O_2_
Cell parameters: a: 10.3331(2) b: 10.9861(4) c: 5.7630(2) alpha: 90. beta: 90. gamma: 90. volume: 654.22(2) crystal system: orthorhombic
x	intensity
5	0
5.22	12.5157
5.44	6.55707
5.66	17.8444
5.88	9.53016
6.1	7.55455
6.32	3.79332
6.54	7.77699
6.76	3.14749
6.98	31.7889
7.2	22.9854
7.42	10.0403
7.64	7.30172
7.86	16.6434
8.08	13.8099
8.3	3.14586
8.52	7.19609
8.74	19.14
8.96	27.633
9.18	11.6249
9.4	9.18743
9.62	17.576
9.84	12.604
10.06	2.02286
10.28	14.3661
10.5	12.7617
10.72	25.899
10.94	5.28841
11.16	2.64832
11.38	10.1408
11.6	3.41145
11.82	22.4316
12.04	4.96356
12.26	17.0408
12.48	14.424
12.7	11.1673
12.92	3.2946
13.14	11.0224
13.36	14.0295
13.58	20.9877
13.8	7.18911
14.02	10.9066
14.24	11.2477
14.46	13.1321
14.68	7.22733
14.9	9.37096
15.12	16.0337
15.34	7.90476
15.56	12.4112
15.78	1.20254
16	22.5309
16.22	131.705
16.44	26.1508
16.66	19.3961
16.88	3.10888
17.1	180.543
17.32	55.4067
17.54	82.5269
17.76	38.0534
17.98	1.58068
18.2	4.93704
18.42	30.7428
18.64	3.42608
18.86	12.1776
19.08	4.99557
19.3	12.5297
19.52	6.40031
19.74	9.39808
19.96	11.8124
20.18	7.87986
20.4	11.7604
20.62	9.12017
20.84	4.48632
21.06	29.3193
21.28	6.47909
21.5	3.67676
21.72	7.09531
21.94	11.0942
22.16	16.6983
22.38	26.9171
22.6	5.62488
22.82	5.99054
23.04	0.615929
23.26	11.2082
23.48	15.4013
23.7	49.2384
23.92	37.2176
24.14	19.8707
24.36	15.0952
24.58	14.7586
24.8	5.52034
25.02	1.70144
25.24	9.67675
25.46	3.43772
25.68	17.4117
25.9	49.1677
26.12	11.0889
26.34	11.1502
26.56	11.1652
26.78	17.6294
27	13.1875
27.22	24.2317
27.44	4.52471
27.66	7.76602
27.88	2.4665
28.1	9.8366
28.32	69.0074
28.54	10.2828
28.76	17.1306
28.98	10.9054
29.2	9.97789
29.42	7.27805
29.64	10.031
29.86	13.3796
30.08	14.0166
30.3	100.127
30.52	6.36515
30.74	31.6757
30.96	26.73
31.18	23.3114
31.4	32.0385
31.62	12.3614
31.84	0.951958
32.06	4.5045
32.28	0.869341
32.5	21.7187
32.72	95.5129
32.94	23.5967
33.16	7.77707
33.38	4.42802
33.6	12.3765
33.82	24.8171
34.04	4.26545
34.26	13.1964
34.48	97.6831
34.7	144.433
34.92	15.7873
35.14	62.7115
35.36	3.4659
35.58	10.4176
35.8	17.0512
36.02	10.8123
36.24	1.28138
36.46	0.182678
36.68	1.70377
36.9	2.79714
37.12	24.1842
37.34	2.50149
37.56	9.82343
37.78	14.1349
38	0.782703
38.22	13.6976
38.44	9.84975
38.66	9.28914
38.88	2.90028
39.1	17.5262
39.32	34.3328
39.54	16.9569
39.76	12.8043
39.98	9.92215
40.2	3.67751
40.42	7.44719
40.64	19.3361
40.86	41.311
41.08	3.0109
41.3	3.80386
41.52	17.4743
41.74	57.2053
41.96	25.8927
42.18	35.0376
42.4	4.13518
42.62	15.6399
42.84	6.34913
43.06	16.1758
43.28	6.85637
43.5	5.55008
43.72	5.75207
43.94	11.2414
44.16	39.4281
44.38	6.58174
44.6	239.983
44.82	20.561
45.04	23.8411
45.26	4.05017
45.48	21.036
45.7	13.0974
45.92	4.06969
46.14	7.90322
46.36	8.6814
46.58	15.4065
46.8	73.476
47.02	6.84439
47.24	77.4764
47.46	42.2811
47.68	36.1318
47.9	14.278
48.12	18.4352
48.34	31.1413
48.56	0.32551
48.78	5.56537
49	14.8306
49.22	50.8766
49.44	4.95966
49.66	17.0219
49.88	7.00287
50.1	13.2722
50.32	6.42394
50.54	8.5449
50.76	21.2844
50.98	0.264565
51.2	7.5175
51.42	14.8032
51.64	2.46216
51.86	16.8199
52.08	8.2098
52.3	6.28482
52.52	0.746717
52.74	3.43566
52.96	18.5458
53.18	39.4336
53.4	20.5776
53.62	17.3441
53.84	8.91928
54.06	1.75816
54.28	0.378958
54.5	1.39315
54.72	1.88946
54.94	11.8285
55.16	9.55103
55.38	6.71875
55.6	22.3173
55.82	19.6673
56.04	24.4932
56.26	8.24925
56.48	3.13815
56.7	3.69644
56.92	1.38613
57.14	3.80954
57.36	31.1538
57.58	21.3914
57.8	22.1233
58.02	14.0308
58.24	5.04256
58.46	4.98004
58.68	17.8886
58.9	1.82572
59.12	1.60868
59.34	32.4948
59.56	9.06541
59.78	23.1498
60	33.3911
60.22	21.3643
60.44	0.121847
60.66	25.5092
60.88	6.75416
61.1	9.92818
61.32	1.17291
61.54	12.6157
61.76	12.5
61.98	11.4654
62.2	5.4909
62.42	4.13709
62.64	18.876
62.86	120.913
63.08	9.32709
63.3	4.19306
63.52	10.1709
63.74	14.9568
63.96	2.06102
64.18	21.152
64.4	34.5791
64.62	34.2886
64.84	27.4637
65.06	10.3717
65.28	22.3931
65.5	3.88206
65.72	13.1891
65.94	1.11277
66.16	20.4874
66.38	26.0042
66.6	15.6006
66.82	5.50643
67.04	8.89497
67.26	12.9983
67.48	13.8463
67.7	7.89493
67.92	4.11162
68.14	14.1197
68.36	19.0092
68.58	25.2853
68.8	2.15816
69.02	12.682
69.24	1.19534
69.46	6.51656
69.68	2.68109
69.9	10.8178
70.12	3.91451
70.34	7.63593
70.56	9.73677
70.78	11.9245
71	29.8075
71.22	16.5832
71.44	10.8372
71.66	5.36669
71.88	4.4778
72.1	3.49163
72.32	6.57172
72.54	18.0027
72.76	26.1971
72.98	19.7212
73.2	12.6462
73.42	9.40727
73.64	1.69598
73.86	11.7513
74.08	19.5121
74.3	18.1663
74.52	17.2208
74.74	10.1637
74.96	7.73881
75.18	9.80175
75.4	0.780111
75.62	23.6172
75.84	21.6475
76.06	16.4731
76.28	18.5795
76.5	15.134
76.72	10.3506
76.94	18.4823
77.16	16.0617
77.38	4.87614
77.6	12.9992
77.82	13.3361
78.04	5.5869
78.26	0.965063
78.48	4.722
78.7	19.4452
78.92	13.7116
79.14	0.657413
79.36	14.2603
79.58	18.344
79.8	0.809708
80.02	6.0743
80.24	8.39446
80.46	2.62662
80.68	15.469
80.9	1.4473
81.12	7.45579
81.34	2.13476
81.56	10.2418
81.78	4.40799
82	13.5794
82.22	10.6526
82.44	4.28615
82.66	10.0592
82.88	15.9983
83.1	9.09872
83.32	5.9287
83.54	3.90077
83.76	4.9626
83.98	9.68528
84.2	13.769
84.42	17.9271
84.64	9.41557
84.86	4.73487
85.08	1.56741
85.3	1.81417
85.52	6.79441
85.74	9.82604
85.96	5.88541
86.18	14.7571
86.4	13.6927
86.62	15.9388
86.84	9.8277
87.06	7.28844
87.28	16.09
87.5	8.24058
87.72	8.00912
87.94	3.29361
88.16	17.8126
88.38	7.60549
88.6	3.14801
88.82	10.4504
89.04	24.5757
89.26	19.3291
89.48	9.34607
89.7	7.93827
89.92	16.3655
