Measurement: Powder, Xray Data XY Processed
Mineral: Greenockite
Rruff sample: R090045
Ideal chemistry: Cd^2+^S^2-^
Locality: Synthetic
Source: Carl Ingerson via UAMM
Description: Red and yellow bundles of bladed crystals
Diffraction sample description: Powder
Cell parameters: a: 4.1366(2) b: 4.1366(2) c: 6.7148(7) alpha: 90 beta: 90 gamma: 120 volume: 99.50(1) crystal system: hexagonal
x	intensity
5	0
5.22	5.79303
5.44	5.67718
5.66	3.18171
5.88	11.5349
6.1	17.9668
6.32	0.369853
6.54	0.063177
6.76	1.39964
6.98	4.01075
7.2	9.65711
7.42	4.36727
7.64	3.29518
7.86	6.58901
8.08	5.48762
8.3	9.59674
8.52	8.75954
8.74	4.82257
8.96	3.58039
9.18	2.33904
9.4	6.14641
9.62	1.28141
9.84	3.93842
10.06	8.70471
10.28	5.9039
10.5	9.73022
10.72	0.098611
10.94	5.11889
11.16	3.36765
11.38	3.71557
11.6	4.92032
11.82	6.01382
12.04	5.27949
12.26	3.45561
12.48	9.56322
12.7	5.59726
12.92	9.62505
13.14	3.79814
13.36	4.7165
13.58	1.43539
13.8	5.34425
14.02	5.29281
14.24	3.76336
14.46	4.01505
14.68	10.2519
14.9	2.15442
15.12	5.0692
15.34	3.06266
15.56	7.8028
15.78	3.99556
16	4.80338
16.22	3.96459
16.44	6.11089
16.66	4.43141
16.88	7.64856
17.1	1.47371
17.32	7.54665
17.54	9.78038
17.76	5.96002
17.98	8.20326
18.2	7.08534
18.42	3.31766
18.64	5.35002
18.86	4.43172
19.08	2.38914
19.3	5.69246
19.52	2.8448
19.74	3.89787
19.96	6.91925
20.18	6.88314
20.4	1.11687
20.62	1.24548
20.84	2.39155
21.06	2.57067
21.28	3.65656
21.5	3.67964
21.72	1.64124
21.94	2.62914
22.16	3.7915
22.38	5.15183
22.6	4.56621
22.82	4.11455
23.04	6.8369
23.26	5.42936
23.48	6.85116
23.7	8.26819
23.92	2.54768
24.14	3.73538
24.36	3.93743
24.58	20.7231
24.8	237.487
25.02	63.5329
25.24	14.9788
25.46	18.283
25.68	1.1581
25.9	2.53314
26.12	1.75586
26.34	26.9197
26.56	201.701
26.78	11.575
27	8.37603
27.22	2.70983
27.44	1.34011
27.66	12.0126
27.88	28.1827
28.1	142.561
28.32	195.887
28.54	33.7098
28.76	10.268
28.98	8.90334
29.2	7.73196
29.42	6.56799
29.64	4.64237
29.86	0.486477
30.08	3.91267
30.3	3.69065
30.52	6.23837
30.74	4.90984
30.96	3.16035
31.18	10.5588
31.4	1.96075
31.62	6.00292
31.84	5.07033
32.06	5.84632
32.28	6.88911
32.5	8.95649
32.72	9.08378
32.94	3.37954
33.16	2.34439
33.38	2.41086
33.6	7.1857
33.82	4.13029
34.04	7.33951
34.26	0.708467
34.48	5.61062
34.7	8.52618
34.92	3.36475
35.14	4.82272
35.36	2.06413
35.58	6.03052
35.8	5.73251
36.02	9.46061
36.24	8.21294
36.46	30.8331
36.68	80.5431
36.9	16.6425
37.12	6.9628
37.34	2.14553
37.56	1.35215
37.78	1.69961
38	3.01782
38.22	3.24213
38.44	0.568311
38.66	6.76209
38.88	5.91943
39.1	0.912308
39.32	6.83685
39.54	2.56191
39.76	1.14058
39.98	9.07195
40.2	2.94037
40.42	2.16837
40.64	3.17208
40.86	3.27551
41.08	1.12203
41.3	5.06798
41.52	5.16784
41.74	1.93192
41.96	0.242883
42.18	3.60952
42.4	8.92739
42.62	2.39937
42.84	7.53002
43.06	5.98966
43.28	5.38387
43.5	43.0439
43.72	186.324
43.94	69.678
44.16	16.5632
44.38	6.69741
44.6	0.960491
44.82	3.37715
45.04	2.00043
45.26	3.12913
45.48	4.98698
45.7	1.79985
45.92	1.75843
46.14	0.527143
46.36	3.27709
46.58	1.17214
46.8	0.976271
47.02	5.70798
47.24	10.0984
47.46	5.29428
47.68	31.7488
47.9	119.556
48.12	35.3304
48.34	17.5033
48.56	0.056164
48.78	2.47359
49	3.16414
49.22	5.92979
49.44	4.97796
49.66	0.970521
49.88	2.54323
50.1	5.79663
50.32	0.780028
50.54	4.45813
50.76	7.30527
50.98	23.8547
51.2	10.2818
51.42	7.755
51.64	15.6503
51.86	86.1954
52.08	59.9656
52.3	17.4396
52.52	6.33801
52.74	20.8468
52.96	39.1444
53.18	17.5341
53.4	6.86354
53.62	8.16329
53.84	1.29614
54.06	3.90102
54.28	10.0061
54.5	4.79649
54.72	7.94312
54.94	0.398064
55.16	6.33966
55.38	10.4166
55.6	4.54249
55.82	1.81725
56.04	5.06671
56.26	9.81714
56.48	4.13951
56.7	0.972771
56.92	3.98049
57.14	3.79054
57.36	4.73782
57.58	6.68557
57.8	2.59876
58.02	2.54828
58.24	8.45745
58.46	15.0622
58.68	7.42571
58.9	2.25133
59.12	7.28442
59.34	7.45341
59.56	1.4652
59.78	3.4492
60	1.49431
60.22	0.519457
60.44	3.47896
60.66	4.57303
60.88	12.3394
61.1	3.38905
61.32	1.45232
61.54	4.48652
61.76	6.39374
61.98	1.51548
62.2	1.66181
62.42	2.92512
62.64	4.07796
62.86	4.12329
63.08	3.01228
63.3	0.887825
63.52	1.21999
63.74	2.33348
63.96	5.55683
64.18	4.46638
64.4	5.28505
64.62	7.05875
64.84	0.580011
65.06	2.48922
65.28	3.15525
65.5	1.81492
65.72	7.35887
65.94	2.9741
66.16	1.58816
66.38	3.17001
66.6	15.0213
66.82	21.0498
67.04	19.3163
67.26	5.38009
67.48	6.55783
67.7	3.66368
67.92	0.083013
68.14	0.974637
68.36	0.036992
68.58	1.9026
68.8	6.75976
69.02	1.73658
69.24	9.80359
69.46	7.28057
69.68	6.91893
69.9	4.44687
70.12	0.252236
70.34	5.06273
70.56	5.93294
70.78	15.2539
71	34.2715
71.22	16.208
71.44	13.164
71.66	2.03124
71.88	1.22875
72.1	1.40574
72.32	15.8304
72.54	8.37617
72.76	1.5599
72.98	3.88733
73.2	3.91973
73.42	6.45416
73.64	5.81127
73.86	5.87583
74.08	2.89527
74.3	2.84741
74.52	7.7713
74.74	2.21587
74.96	5.02318
75.18	1.71576
75.4	23.6015
75.62	25.1511
75.84	18.3378
76.06	3.44529
76.28	1.5301
76.5	3.80232
76.72	7.01365
76.94	0.218337
77.16	3.41172
77.38	2.72353
77.6	1.9759
77.82	0.225181
78.04	3.33981
78.26	4.24778
78.48	3.14255
78.7	8.15603
78.92	0.030476
79.14	10.8696
79.36	1.22091
79.58	1.31161
79.8	6.57195
80.02	5.63691
80.24	18.4903
80.46	7.33198
80.68	6.96855
80.9	6.33684
81.12	3.32666
81.34	2.19774
81.56	8.00517
81.78	2.18328
82	4.611
82.22	6.18192
82.44	3.87414
82.66	1.54174
82.88	4.4267
83.1	11.3178
83.32	34.1757
83.54	25.4065
83.76	7.75957
83.98	4.06727
84.2	10.4616
84.42	6.71797
84.64	3.0998
84.86	4.30916
85.08	5.39107
85.3	5.3315
85.52	1.23071
85.74	2.18041
85.96	5.84394
86.18	3.52821
86.4	14.3704
86.62	3.47659
86.84	16.5289
87.06	5.50186
87.28	5.59311
87.5	0.083045
87.72	5.19413
87.94	4.54443
88.16	0.866753
88.38	3.22498
88.6	6.57665
88.82	6.91691
89.04	2.16262
89.26	8.3156
89.48	2.59907
89.7	6.80569
89.92	2.84395
