Measurement: Powder, Xray Data XY Processed
Mineral: Grossular
Rruff sample: R060499
Ideal chemistry: Ca_3_Al_2_(SiO_4_)_3_
Locality: Lake Jaco, Chihuahua, Mexico
Source: Michael Scott
Description: Tan colored single dodecahedral crystal
Diffraction sample description: Powder
Measured chemistry: (Ca_2.90_Mg_0.10_)_Σ=3_(Al_1.78_Fe^3+^_0.19_Ti_0.03_)_Σ=2_(Si_1.00_O_4_)_3_
Cell parameters: a: 11.8882(2) b: 11.8882(2) c: 11.8882(2) alpha: 90. beta: 90. gamma: 90. volume: 1680.18(7) crystal system: cubic
x	intensity
5	0
5.22	8.56697
5.44	4.78486
5.66	5.65138
5.88	4.52612
6.1	13.6229
6.32	5.11646
6.54	9.41769
6.76	2.91056
6.98	10.5762
7.2	8.85466
7.42	3.83334
7.64	11.3948
7.86	4.69825
8.08	4.40995
8.3	8.02839
8.52	4.70936
8.74	1.63966
8.96	8.05359
9.18	7.53113
9.4	2.09197
9.62	7.38491
9.84	4.69564
10.06	5.39271
10.28	0.55298
10.5	4.21011
10.72	3.23924
10.94	7.0646
11.16	1.97624
11.38	5.95914
11.6	4.0062
11.82	5.92504
12.04	2.11892
12.26	4.26846
12.48	5.5633
12.7	4.87498
12.92	9.28626
13.14	0.46584
13.36	0.180662
13.58	9.08235
13.8	3.11797
14.02	2.23613
14.24	7.36887
14.46	0.510587
14.68	9.58296
14.9	0.3816
15.12	5.04927
15.34	5.91871
15.56	20.1383
15.78	8.11275
16	4.08946
16.22	3.13652
16.44	9.18085
16.66	5.29898
16.88	6.19461
17.1	4.19499
17.32	3.41269
17.54	4.48591
17.76	4.34322
17.98	2.23268
18.2	0.317203
18.42	5.40277
18.64	1.4378
18.86	4.47079
19.08	5.48879
19.3	8.64731
19.52	1.5435
19.74	8.50607
19.96	0.538398
20.18	3.69711
20.4	9.66104
20.62	4.62139
20.84	3.52549
21.06	3.46172
21.28	4.36417
21.5	6.59341
21.72	1.55079
21.94	4.57482
22.16	7.60299
22.38	1.64883
22.6	8.54394
22.82	2.55161
23.04	3.67077
23.26	7.70201
23.48	2.71579
23.7	1.7513
23.92	2.77732
24.14	1.79937
24.36	2.79542
24.58	4.85014
24.8	5.84682
25.02	8.09905
25.24	5.05974
25.46	3.9783
25.68	8.29657
25.9	7.37949
26.12	2.34269
26.34	5.0266
26.56	4.78259
26.78	1.76535
27	2.69194
27.22	7.68568
27.44	2.44386
27.66	3.62368
27.88	4.85284
28.1	3.59349
28.32	0.405904
28.54	4.34042
28.76	2.34584
28.98	0.232805
29.2	10.1082
29.42	9.21625
29.64	3.00422
29.86	5.99253
30.08	82.7173
30.3	17.5151
30.52	8.8534
30.74	0.992647
30.96	4.02229
31.18	0.961384
31.4	1.06209
31.62	7.95082
31.84	2.99202
32.06	6.84091
32.28	5.68299
32.5	5.54801
32.72	8.14975
32.94	1.69218
33.16	3.63407
33.38	10.5399
33.6	19.8418
33.82	242.835
34.04	22.9428
34.26	8.73063
34.48	3.8497
34.7	1.72093
34.92	1.38866
35.14	13.9336
35.36	12.029
35.58	16.9336
35.8	4.98509
36.02	6.66624
36.24	5.57357
36.46	2.50744
36.68	9.58019
36.9	10.5123
37.12	90.5384
37.34	13.5582
37.56	2.11721
37.78	1.8498
38	3.21019
38.22	5.27378
38.44	6.64798
38.66	85.8905
38.88	5.14065
39.1	0.145663
39.32	3.58381
39.54	8.34951
39.76	5.56099
39.98	6.60544
40.2	5.72091
40.42	4.8361
40.64	2.80626
40.86	4.44744
41.08	6.30957
41.3	0.270291
41.52	8.33003
41.74	37.0905
41.96	11.0084
42.18	3.85263
42.4	2.9101
42.62	3.85543
42.84	2.82636
43.06	13.1965
43.28	14.3056
43.5	7.49544
43.72	3.69121
43.94	0.015352
44.16	2.84159
44.38	5.23647
44.6	7.27378
44.82	1.27539
45.04	1.23729
45.26	3.11404
45.48	1.73304
45.7	2.82363
45.92	6.57794
46.14	0.206071
46.36	6.68947
46.58	3.38776
46.8	0.334752
47.02	3.28902
47.24	32.3606
47.46	6.30375
47.68	6.49575
47.9	2.57469
48.12	0.500108
48.34	4.90403
48.56	11.069
48.78	7.26621
49	8.51962
49.22	6.66336
49.44	1.10049
49.66	8.99317
49.88	5.06554
50.1	7.03703
50.32	10.0412
50.54	2.16968
50.76	2.91229
50.98	4.83124
51.2	7.73492
51.42	3.63877
51.64	2.612
51.86	2.41262
52.08	7.36192
52.3	11.2817
52.52	6.12962
52.74	5.06613
52.96	6.01453
53.18	7.11295
53.4	56.1439
53.62	13.2205
53.84	4.46401
54.06	0.688322
54.28	6.16329
54.5	4.18452
54.72	9.19523
54.94	3.18233
55.16	6.34251
55.38	5.27405
55.6	10.3203
55.82	84.1769
56.04	12.0059
56.26	4.71392
56.48	1.57993
56.7	6.35377
56.92	11.1767
57.14	11.03
57.36	1.06926
57.58	9.7297
57.8	16.541
58.02	61.424
58.24	117.802
58.46	6.92861
58.68	1.11917
58.9	5.29033
59.12	7.57838
59.34	3.8037
59.56	1.12938
59.78	5.3614
60	3.63125
60.22	1.76269
60.44	3.7426
60.66	0.299466
60.88	4.58306
61.1	3.4979
61.32	6.6748
61.54	6.55214
61.76	3.49284
61.98	3.32006
62.2	5.40569
62.42	9.30313
62.64	8.2554
62.86	2.21952
63.08	7.139
63.3	3.28196
63.52	7.06214
63.74	11.1916
63.96	3.21897
64.18	4.2676
64.4	6.29015
64.62	3.24619
64.84	5.41769
65.06	2.62261
65.28	1.70074
65.5	7.64288
65.72	11.7463
65.94	6.72021
66.16	7.04311
66.38	2.05026
66.6	0.93663
66.82	5.11747
67.04	7.06918
67.26	4.80105
67.48	5.63527
67.7	2.7431
67.92	4.97995
68.14	4.85692
68.36	9.81203
68.58	6.58575
68.8	0.872836
69.02	5.26701
69.24	5.20951
69.46	6.30148
69.68	4.32043
69.9	4.3684
70.12	3.32492
70.34	6.06359
70.56	9.02568
70.78	12.0107
71	15.2265
71.22	9.89353
71.44	4.54416
71.66	1.50714
71.88	4.32337
72.1	2.23239
72.32	3.1238
72.54	4.12491
72.76	9.1238
72.98	34.9707
73.2	25.0945
73.42	6.80138
73.64	8.81313
73.86	7.74641
74.08	5.64892
74.3	1.65705
74.52	6.71236
74.74	2.69168
74.96	27.4815
75.18	8.80779
75.4	1.87014
75.62	7.95022
75.84	5.03167
76.06	7.05109
76.28	4.21137
76.5	0.331839
76.72	4.49985
76.94	5.72921
77.16	3.95201
77.38	10.0509
77.6	7.93025
77.82	3.03866
78.04	1.97986
78.26	5.96599
78.48	7.04824
78.7	5.03912
78.92	1.0315
79.14	1.04046
79.36	1.0018
79.58	0.120368
79.8	2.75156
80.02	13.6329
80.24	0.226243
80.46	1.91485
80.68	2.93233
80.9	0.860969
81.12	2.00235
81.34	7.01949
81.56	2.01163
81.78	8.00315
82	5.06818
82.22	2.99558
82.44	4.06382
82.66	3.91853
82.88	7.00521
83.1	3.98047
83.32	12.9206
83.54	3.91647
83.76	2.89458
83.98	8.7385
84.2	1.02381
84.42	0.95919
84.64	3.94068
84.86	6.83265
85.08	9.82814
85.3	1.23604
85.52	1.28268
85.74	7.68799
85.96	5.74009
86.18	3.91154
86.4	2.11131
86.62	0.221807
86.84	1.70768
87.06	4.86063
87.28	5.86881
87.5	4.73529
87.72	3.72396
87.94	5.7552
88.16	6.07888
88.38	10.0184
88.6	45.925
88.82	14.7119
89.04	16.8941
89.26	6.83141
89.48	1.10549
89.7	5.41399
89.92	6.59998
