Measurement: Powder, Xray Data XY Processed
Mineral: Grossular
Rruff sample: R060446
Ideal chemistry: Ca_3_Al_2_(SiO_4_)_3_
Locality: Africa
Source: Gemological Institute of America
Description: Orange fragment. Variety hibschite.
Diffraction sample description: Powder
Measured chemistry: (Ca_2.97_Mn_0.03_)_Σ=3_(Al_1.96_Fe^3+^_0.04_)_Σ=2_(Si_1.00_O_4_)_2.71_(OH)_1.16_ (x=0.29); OH estimated by charge balance
Cell parameters: a: 11.932(1) b: 11.932(1) c: 11.932(1) alpha: 90 beta: 90 gamma: 90 volume: 1698.7(0) crystal system: cubic
x	intensity
5	0
5.22	12.079
5.44	12.526
5.66	6.893
5.88	2.701
6.1	19.571
6.32	7.02
6.54	4.115
6.76	6.162
6.98	8.427
7.2	18.145
7.42	5.029
7.64	7.94
7.86	2.196
8.08	10.219
8.3	13.445
8.52	2.441
8.74	5.606
8.96	5.024
9.18	10.636
9.4	5.369
9.62	10.012
9.84	9.498
10.06	6.029
10.28	10.437
10.5	4.913
10.72	8.022
10.94	8.19
11.16	3.264
11.38	8.465
11.6	11.614
11.82	2.757
12.04	4.847
12.26	4.957
12.48	6.022
12.7	0.972
12.92	8.291
13.14	1.554
13.36	5.603
13.58	2.543
13.8	4.764
14.02	0.195
14.24	0.64
14.46	5.613
14.68	2.814
14.9	4.168
15.12	12.855
15.34	6.926
15.56	7.022
15.78	4.247
16	2.426
16.22	5.43
16.44	0.386
16.66	4.448
16.88	5.396
17.1	2.355
17.32	1.159
17.54	1.651
17.76	4.597
17.98	12.553
18.2	4.443
18.42	5.569
18.64	4.682
18.86	3.362
19.08	4.7
19.3	11.085
19.52	5.28
19.74	4.406
19.96	1.307
20.18	2.2
20.4	8.24
20.62	4.419
20.84	4.283
21.06	3.314
21.28	7.308
21.5	1.404
21.72	4.07
21.94	1.973
22.16	3.056
22.38	3.146
22.6	0.161
22.82	0.692
23.04	4.306
23.26	0.368
23.48	6.671
23.7	3.745
23.92	3.742
24.14	0.843
24.36	1.078
24.58	8.931
24.8	5.947
25.02	6.04
25.24	1.902
25.46	4.834
25.68	1.377
25.9	7.526
26.12	4.485
26.34	1.392
26.56	2.384
26.78	7.289
27	1.123
27.22	6.084
27.44	8.961
27.66	3.921
27.88	6.151
28.1	3.921
28.32	6.916
28.54	1.734
28.76	0.544
28.98	1.248
29.2	5.076
29.42	9.086
29.64	6.068
29.86	37.893
30.08	48.759
30.3	25.511
30.52	9.038
30.74	7.201
30.96	2.311
31.18	2.417
31.4	1.465
31.62	4.533
31.84	3.133
32.06	1.591
32.28	4.151
32.5	2.681
32.72	4.252
32.94	3.31
33.16	13.632
33.38	75.469
33.6	149.421
33.82	87.268
34.04	16.053
34.26	10.178
34.48	1.392
34.7	3.034
34.92	6.652
35.14	8.224
35.36	12.506
35.58	2.803
35.8	1.685
36.02	8.66
36.24	0.307
36.46	10.782
36.68	14.324
36.9	24.284
37.12	20.034
37.34	9.876
37.56	4.764
37.78	2.971
38	7.264
38.22	9.534
38.44	12.404
38.66	20.632
38.88	12.868
39.1	0.596
39.32	1.857
39.54	0.808
39.76	3.141
39.98	4.065
40.2	1.952
40.42	7.695
40.64	5.604
40.86	5.829
41.08	9.859
41.3	25.994
41.52	22.272
41.74	9.191
41.96	5
42.18	2.19
42.4	8.339
42.62	6.626
42.84	4.772
43.06	5.99
43.28	3.184
43.5	0.414
43.72	3.474
43.94	3.619
44.16	0.973
44.38	4.027
44.6	2.298
44.82	8.244
45.04	1.006
45.26	5.81
45.48	5.578
45.7	1.244
45.92	1.806
46.14	7.31
46.36	6.171
46.58	8.739
46.8	27.609
47.02	11.433
47.24	13.47
47.46	8.588
47.68	6.943
47.9	1.364
48.12	1.893
48.34	5.179
48.56	5.473
48.78	10.538
49	0.843
49.22	0.917
49.44	2.182
49.66	2.322
49.88	4.51
50.1	4.481
50.32	5.639
50.54	4.536
50.76	4.589
50.98	3.603
51.2	4.486
51.42	2.4
51.64	3.327
51.86	0.01
52.08	0.767
52.3	0.471
52.52	7.158
52.74	12.743
52.96	8.39
53.18	20.665
53.4	20.608
53.62	9.363
53.84	9.866
54.06	0.632
54.28	3.423
54.5	6.169
54.72	5.893
54.94	2.63
55.16	24.426
55.38	27.438
55.6	19.036
55.82	24.844
56.04	6.735
56.26	0.639
56.48	6.558
56.7	0.509
56.92	4.494
57.14	4.53
57.36	17.627
57.58	31.724
57.8	21.632
58.02	35.979
58.24	37.077
58.46	7.557
58.68	9.361
58.9	2.896
59.12	2.531
59.34	0.929
59.56	2.482
59.78	0.093
60	7.981
60.22	2.201
60.44	1.909
60.66	4.84
60.88	0.385
61.1	7.097
61.32	0.848
61.54	7.539
61.76	4.439
61.98	3.307
62.2	5.313
62.42	11.634
62.64	7.526
62.86	4.757
63.08	3.011
63.3	7.383
63.52	4.724
63.74	3
63.96	5.267
64.18	1.446
64.4	0.555
64.62	2.591
64.84	6.462
65.06	3.462
65.28	2.597
65.5	4.904
65.72	3.864
65.94	1.786
66.16	4.781
66.38	6.891
66.6	5.905
66.82	0.856
67.04	4.776
67.26	1.281
67.48	0.215
67.7	1.554
67.92	2.376
68.14	4.389
68.36	3.376
68.58	4.471
68.8	4.202
69.02	0.032
69.24	6.975
69.46	2.828
69.68	3.655
69.9	10.332
70.12	10.169
70.34	8.092
70.56	9.073
70.78	11.757
71	11.32
71.22	3.12
71.44	2.055
71.66	0.641
71.88	7.45
72.1	7.295
72.32	9.346
72.54	7.368
72.76	8.207
72.98	6.998
73.2	4.048
73.42	3.263
73.64	1.611
73.86	0.526
74.08	1.301
74.3	2.978
74.52	12.099
74.74	9.593
74.96	9.667
75.18	5.929
75.4	5.208
75.62	2.307
75.84	1.384
76.06	1.947
76.28	2.16
76.5	7.39
76.72	7.579
76.94	5.754
77.16	0.649
77.38	1.822
77.6	2.889
77.82	6.869
78.04	2.953
78.26	9.911
78.48	3.808
78.7	2.801
78.92	3.644
79.14	8.557
79.36	2.555
79.58	3.424
79.8	5.309
80.02	6.176
80.24	0.16
80.46	2.063
80.68	0.128
80.9	1.095
81.12	1.246
81.34	5.338
81.56	3.412
81.78	1.539
82	3.531
82.22	3.576
82.44	7.524
82.66	1.731
82.88	3.714
83.1	5.621
83.32	2.707
83.54	4.665
83.76	3.679
83.98	1.679
84.2	5.562
84.42	1.352
84.64	3.647
84.86	5.822
85.08	4.64
85.3	3.957
85.52	2.127
85.74	6.871
85.96	2.621
86.18	5.384
86.4	3.216
86.62	5.84
86.84	4.434
87.06	2.042
87.28	9.479
87.5	1.966
87.72	9.595
87.94	0.166
88.16	1.092
88.38	9.299
88.6	5.584
88.82	9.42
89.04	7.647
89.26	1.03
89.48	6.566
89.7	5.296
89.92	3.705
