Measurement: Powder, Xray Data XY Processed
Mineral: Grossular
Rruff sample: R060452
Ideal chemistry: Ca_3_Al_2_(SiO_4_)_3_
Locality: unknown
Source: Gemological Institute of America
Description: Yellowish-brown colored fragment
Diffraction sample description: Powder
Measured chemistry: (Ca_2.94_Mn_0.03_Mg_0.03_)_Σ=3_(Al_1.91_Fe^3+^_0.06_Ti_0.03_)_Σ=2_((Si_0.99_Al_0.01_)_Σ=1_O_4_)_3_
Cell parameters: a: 11.8529(1) b: 11.8529(1) c: 11.8529(1) alpha: 90. beta: 90. gamma: 90. volume: 1665.25(5) crystal system: cubic
x	intensity
5	0
5.22	8.01
5.44	6.769
5.66	13.236
5.88	1.311
6.1	4.2
6.32	2.585
6.54	5.386
6.76	11.72
6.98	4.098
7.2	9.686
7.42	7.569
7.64	18.018
7.86	6.037
8.08	8.006
8.3	6.2
8.52	0.651
8.74	0.59
8.96	6.879
9.18	1.909
9.4	5.732
9.62	3.477
9.84	2.038
10.06	7.224
10.28	6.525
10.5	4.109
10.72	10.701
10.94	7.977
11.16	3.014
11.38	6.045
11.6	6.138
11.82	6.272
12.04	5.456
12.26	13.655
12.48	5.785
12.7	3.875
12.92	10.054
13.14	8.807
13.36	6.023
13.58	5.136
13.8	3.265
14.02	5.449
14.24	3.502
14.46	0.835
14.68	4.003
14.9	6.211
15.12	4.211
15.34	5.265
15.56	1.272
15.78	6.552
16	0.567
16.22	3.736
16.44	3.738
16.66	4.835
16.88	6.707
17.1	8.655
17.32	0.291
17.54	5.783
17.76	1.825
17.98	5.088
18.2	6.942
18.42	6.119
18.64	2.068
18.86	5.276
19.08	8.216
19.3	3.226
19.52	2.171
19.74	10.274
19.96	3.277
20.18	2.388
20.4	2.161
20.62	2.17
20.84	2.167
21.06	4.347
21.28	10.234
21.5	3.229
21.72	3.335
21.94	5.343
22.16	1.236
22.38	2.342
22.6	4.24
22.82	0.26
23.04	5.315
23.26	11.142
23.48	2.325
23.7	4.383
23.92	0.487
24.14	3.507
24.36	5.559
24.58	1.516
24.8	3.353
25.02	4.356
25.24	6.491
25.46	4.51
25.68	1.344
25.9	6.165
26.12	3.391
26.34	7.324
26.56	2.314
26.78	3.303
27	4.414
27.22	11.481
27.44	3.501
27.66	3.47
27.88	4.495
28.1	2.48
28.32	5.822
28.54	5.748
28.76	5.653
28.98	5.429
29.2	2.23
29.42	2.116
29.64	4.915
29.86	4.795
30.08	11.632
30.3	79.475
30.52	27.373
30.74	3.893
30.96	3.176
31.18	4.534
31.4	4.723
31.62	3.916
31.84	2.97
32.06	4.163
32.28	2.148
32.5	2.081
32.72	9.982
32.94	2.877
33.16	1.366
33.38	9.362
33.6	20.541
33.82	297.353
34.04	37.142
34.26	11.099
34.48	6.955
34.7	3.076
34.92	12.231
35.14	5.332
35.36	7.518
35.58	35.466
35.8	7.487
36.02	4.182
36.24	6.179
36.46	3.3
36.68	2.434
36.9	2.537
37.12	25.58
37.34	17.562
37.56	5.397
37.78	0.407
38	5.393
38.22	0.502
38.44	2.539
38.66	8.651
38.88	55.746
39.1	7.901
39.32	0.096
39.54	2.943
39.76	5.138
39.98	4.408
40.2	2.633
40.42	2.528
40.64	3.527
40.86	1.626
41.08	0.347
41.3	3.613
41.52	1.489
41.74	52.724
41.96	9.903
42.18	1.616
42.4	8.452
42.62	2.484
42.84	5.628
43.06	7.738
43.28	10.873
43.5	7.85
43.72	4.885
43.94	0.056
44.16	0.271
44.38	7.846
44.6	0.012
44.82	1.247
45.04	1.203
45.26	1.154
45.48	3.203
45.7	0.025
45.92	3.913
46.14	1.835
46.36	8.693
46.58	5.308
46.8	3.102
47.02	8.947
47.24	33.947
47.46	32.888
47.68	8.793
47.9	0.791
48.12	1.942
48.34	5.182
48.56	10.38
48.78	3.583
49	8.718
49.22	4.618
49.44	1.241
49.66	7.84
49.88	4.97
50.1	3.133
50.32	1.121
50.54	3.977
50.76	2.887
50.98	0.878
51.2	3.798
51.42	0.749
51.64	4.859
51.86	0.008
52.08	4.882
52.3	6.785
52.52	3.635
52.74	4.627
52.96	1.768
53.18	14.725
53.4	8.879
53.62	52.957
53.84	9.852
54.06	1.044
54.28	1.639
54.5	2.763
54.72	1.643
54.94	6.5
55.16	5.347
55.38	5.042
55.6	6.868
55.82	16.605
56.04	34.431
56.26	4.241
56.48	6.862
56.7	6.789
56.92	0.585
57.14	5.5
57.36	2.452
57.58	2.459
57.8	0.505
58.02	8.743
58.24	209.683
58.46	61.893
58.68	13.3
58.9	2.71
59.12	1.767
59.34	5.088
59.56	2.583
59.78	4.929
60	6.108
60.22	2.215
60.44	3.295
60.66	3.359
60.88	4.308
61.1	3.116
61.32	2.017
61.54	4.942
61.76	11.789
61.98	4.411
62.2	3.43
62.42	6.771
62.64	9.591
62.86	22.443
63.08	2.546
63.3	4.629
63.52	0.266
63.74	4.67
63.96	6.783
64.18	3.98
64.4	5.105
64.62	5.138
64.84	3.808
65.06	1.861
65.28	3.061
65.5	8.017
65.72	0.854
65.94	5.159
66.16	7.181
66.38	5.073
66.6	7.348
66.82	3.358
67.04	7.349
67.26	4.362
67.48	3.425
67.7	2.439
67.92	3.315
68.14	7.309
68.36	0.308
68.58	7.412
68.8	3.362
69.02	4.251
69.24	9.315
69.46	2.269
69.68	4.23
69.9	2.14
70.12	6.915
70.34	9.87
70.56	1.91
70.78	2.932
71	1.829
71.22	14.825
71.44	6.778
71.66	3.678
71.88	1.553
72.1	3.489
72.32	2.443
72.54	1.569
72.76	6.592
72.98	6.675
73.2	69.487
73.42	37.476
73.64	6.382
73.86	1.35
74.08	0.757
74.3	10.23
74.52	1.377
74.74	1.732
74.96	3.638
75.18	42.515
75.4	37.457
75.62	3.791
75.84	4.791
76.06	2.931
76.28	1.008
76.5	1.192
76.72	2.375
76.94	7.354
77.16	2.155
77.38	3.232
77.6	3.286
77.82	8.404
78.04	5.524
78.26	2.567
78.48	4.582
78.7	3.476
78.92	2.368
79.14	3.22
79.36	4.163
79.58	7.151
79.8	2.175
80.02	11.138
80.24	2.837
80.46	4.708
80.68	0.28
80.9	1.787
81.12	3.766
81.34	7.881
81.56	0.981
81.78	0.091
82	2.003
82.22	0.908
82.44	2.908
82.66	2.035
82.88	2.902
83.1	11.008
83.32	9.827
83.54	5.123
83.76	0.876
83.98	3.079
84.2	2.067
84.42	11.2
84.64	3.408
84.86	2.478
85.08	8.542
85.3	2.46
85.52	4.497
85.74	0.417
85.96	5.355
86.18	1.682
86.4	5.444
86.62	1.433
86.84	1.646
87.06	5.169
87.28	0.735
87.5	0.961
87.72	1.939
87.94	6.824
88.16	3.585
88.38	5.48
88.6	3.368
88.82	16.116
89.04	20.985
89.26	12.618
89.48	2.583
89.7	3.754
89.92	0.816
