Measurement: Powder, Xray Data XY Processed
Mineral: Gypsum
Rruff sample: R060509
Ideal chemistry: CaS^6+^O_4_2H_2_O
Locality: Pierre Shale, Hermosa, Custer County, South Dakota, USA
Source: Michael Scott
Description: Colorless tabular single crystal
Diffraction sample description: Powder
Cell parameters: a: 5.6707(5) b: 15.199(1) c: 6.5215(6) alpha: 90. beta: 118.42(1) gamma: 90. volume: 494.32(5) crystal system: monoclinic
x	intensity
5	0
5.22	7.46767
5.44	16.9194
5.66	5.80605
5.88	17.0146
6.1	4.37006
6.32	2.9291
6.54	12.2251
6.76	15.1543
6.98	10.3427
7.2	15.9485
7.42	13.6073
7.64	12.1064
7.86	1.53667
8.08	3.96538
8.3	11.3199
8.52	1.50861
8.74	3.69784
8.96	4.18549
9.18	1.97474
9.4	8.99786
9.62	9.76475
9.84	2.7883
10.06	1.64891
10.28	3.52559
10.5	14.326
10.72	2.17517
10.94	3.10474
11.16	2.04393
11.38	14.9172
11.6	223.756
11.82	34.8849
12.04	6.03322
12.26	8.35991
12.48	3.61808
12.7	7.13076
12.92	2.84842
13.14	1.26917
13.36	5.76057
13.58	2.2085
13.8	5.35083
14.02	3.74193
14.24	9.05974
14.46	3.25212
14.68	0.62358
14.9	1.52376
15.12	1.61294
15.34	5.46855
15.56	5.54646
15.78	4.60386
16	2.53867
16.22	1.53227
16.44	5.58034
16.66	5.56041
16.88	8.34673
17.1	1.36926
17.32	8.35656
17.54	2.23178
17.76	2.21035
17.98	4.37533
18.2	3.47299
18.42	5.4679
18.64	3.49454
18.86	9.6987
19.08	5.53301
19.3	3.43245
19.52	0.736166
19.74	2.14116
19.96	4.96473
20.18	0.721316
20.4	5.50423
20.62	33.168
20.84	253.329
21.06	21.2422
21.28	4.96748
21.5	2.01494
21.72	2.18238
21.94	2.34098
22.16	0.417147
22.38	0.512504
22.6	3.64718
22.82	0.832663
23.04	2.16734
23.26	5.02421
23.48	100.096
23.7	7.35775
23.92	3.52097
24.14	2.65031
24.36	2.69538
24.58	5.86237
24.8	4.95746
25.02	3.0398
25.24	3.98957
25.46	3.91202
25.68	7.02136
25.9	7.01829
26.12	1.04335
26.34	7.01622
26.56	5.02913
26.78	2.04179
27	0.823197
27.22	3.6345
27.44	6.6414
27.66	2.26286
27.88	0.986779
28.1	11.6282
28.32	8.29531
28.54	6.8991
28.76	2.64802
28.98	38.3243
29.2	273.277
29.42	20.5108
29.64	0.102305
29.86	3.6365
30.08	4.62667
30.3	1.35437
30.52	2.65729
30.74	10.8276
30.96	9.70622
31.18	124.54
31.4	13.6596
31.62	4.48543
31.84	1.13255
32.06	29.8153
32.28	10.8008
32.5	1.18066
32.72	7.92679
32.94	1.03077
33.16	3.32216
33.38	84.4993
33.6	18.6933
33.82	3.07903
34.04	5.28255
34.26	0.369065
34.48	12.6238
34.7	18.7512
34.92	2.83855
35.14	3.78647
35.36	3.55035
35.58	3.44145
35.8	2.41061
36.02	22.5338
36.24	0.665342
36.46	6.20404
36.68	12.2531
36.9	4.20327
37.12	5.43853
37.34	8.62757
37.56	8.80184
37.78	4.02255
38	4.13432
38.22	2.24753
38.44	1.02414
38.66	2.20283
38.88	4.23934
39.1	4.23595
39.32	6.29153
39.54	4.07925
39.76	4.05954
39.98	4.20483
40.2	4.12374
40.42	11.2749
40.64	40.5994
40.86	28.6324
41.08	3.65323
41.3	3.63323
41.52	2.6542
41.74	3.78408
41.96	4.66302
42.18	10.4703
42.4	11.0468
42.62	3.84942
42.84	5.58522
43.06	9.06337
43.28	15.7564
43.5	32.7434
43.72	33.6983
43.94	10.4973
44.16	5.46122
44.38	8.47331
44.6	6.54467
44.82	3.76599
45.04	1.92361
45.26	1.03147
45.48	8.19496
45.7	10.5421
45.92	3.5363
46.14	1.27308
46.36	2.04161
46.58	7.0175
46.8	6.02875
47.02	0.995557
47.24	2.18481
47.46	3.66316
47.68	5.50949
47.9	40.3683
48.12	14.2701
48.34	17.2087
48.56	22.9011
48.78	10.8449
49	4.76558
49.22	6.65138
49.44	2.5302
49.66	3.40456
49.88	5.34039
50.1	6.29401
50.32	30.2896
50.54	17.986
50.76	1.97058
50.98	12.1229
51.2	7.35122
51.42	19.5935
51.64	5.944
51.86	6.44827
52.08	0.102576
52.3	4.19208
52.52	4.46204
52.74	1.80422
52.96	4.16936
53.18	6.29096
53.4	1.07092
53.62	7.05146
53.84	1.03548
54.06	3.81784
54.28	6.42806
54.5	3.16633
54.72	8.92896
54.94	1.66282
55.16	14.3159
55.38	4.96502
55.6	7.71876
55.82	5.47546
56.04	5.25126
56.26	1.5904
56.48	5.5707
56.7	14.8162
56.92	16.9909
57.14	0.162582
57.36	4.40118
57.58	8.53718
57.8	0.204829
58.02	0.087078
58.24	15.2404
58.46	9.31555
58.68	2.20906
58.9	1.4091
59.12	5.46485
59.34	0.478531
59.56	3.5366
59.78	0.583693
60	0.582239
60.22	1.34535
60.44	5.17896
60.66	0.748388
60.88	4.18477
61.1	5.2435
61.32	1.90036
61.54	4.98279
61.76	5.0939
61.98	0.211991
62.2	0.454539
62.42	2.57653
62.64	2.56661
62.86	0.643536
63.08	1.54197
63.3	4.76457
63.52	2.61137
63.74	6.51065
63.96	5.31891
64.18	4.18005
64.4	1.95667
64.62	5.69025
64.84	12.5302
65.06	7.61011
65.28	5.89698
65.5	7.0142
65.72	2.85475
65.94	2.98107
66.16	1.21285
66.38	4.53655
66.6	4.67285
66.82	3.85156
67.04	3.06243
67.26	5.16558
67.48	8.09532
67.7	6.76621
67.92	0.734017
68.14	1.72309
68.36	3.72586
68.58	12.6891
68.8	9.46209
69.02	1.30719
69.24	2.11419
69.46	7.93057
69.68	3.79786
69.9	3.73633
70.12	3.66072
70.34	1.36579
70.56	2.61937
70.78	7.64351
71	13.6389
71.22	8.75016
71.44	1.06867
71.66	2.18612
71.88	3.34843
72.1	3.59194
72.32	3.68258
72.54	4.89954
72.76	0.950319
72.98	0.913052
73.2	1.90721
73.42	1.8323
73.64	2.7888
73.86	2.52246
74.08	6.38759
74.3	2.30042
74.52	2.19825
74.74	1.19297
74.96	0.956273
75.18	5.75516
75.4	0.438511
75.62	1.58618
75.84	1.09383
76.06	4.96204
76.28	8.87961
76.5	6.83108
76.72	1.79746
76.94	11.6859
77.16	6.68811
77.38	6.17684
77.6	1.42287
77.82	2.57466
78.04	0.946596
78.26	4.10735
78.48	1.24997
78.7	3.34684
78.92	6.37865
79.14	4.3757
79.36	5.35497
79.58	13.2926
79.8	9.17858
80.02	6.09799
80.24	8.23787
80.46	0.244431
80.68	7.47385
80.9	3.5888
81.12	9.62968
81.34	6.77001
81.56	1.93457
81.78	0.885572
82	5.76361
82.22	0.622634
82.44	0.366335
82.66	1.44534
82.88	1.1524
83.1	2.94831
83.32	5.16174
83.54	6.23448
83.76	4.0336
83.98	6.81395
84.2	2.7191
84.42	2.31267
84.64	7.60353
84.86	10.5562
85.08	5.68671
85.3	3.65531
85.52	0.718575
85.74	8.2619
85.96	2.2389
86.18	1.62438
86.4	3.53824
86.62	2.66579
86.84	1.85526
87.06	3.15382
87.28	8.41275
87.5	0.592682
87.72	3.51468
87.94	2.59213
88.16	4.72084
88.38	8.83915
88.6	1.98563
88.82	9.04821
89.04	1.16162
89.26	6.90037
89.48	3.01897
89.7	4.31383
89.92	6.25831
