Measurement: Powder, Xray Data XY Processed
Mineral: Gyrolite
Rruff sample: R060163
Ideal chemistry: NaCa_16_(Si_23_Al)O_60_(OH)_8_14H_2_O
Locality: Bombay, India
Source: Marcus Origlieri
Description: Spherical aggregate of thin pseudohexagonal blades
Diffraction sample description: Powder
Measured chemistry: (Ca_15.50_[box]_0.50_)_Σ=16_(Si_23.00_Al_1.00_)O_60_(OH)_6_·14H_2_O
Cell parameters: a: 9.8343(8) b: 9.814(3) c: 22.487(2) alpha: 96.35(2) beta: 92.24(3) gamma: 120.35(2) volume: 1850.0(3) crystal system: triclinic
x	intensity
5	0
5.22	2.039
5.44	20.152
5.66	4.136
5.88	10.278
6.1	9.815
6.32	8.503
6.54	12.474
6.76	9.832
6.98	6.398
7.2	5.988
7.42	2.21
7.64	5.595
7.86	37.89
8.08	140.993
8.3	13.119
8.52	11.926
8.74	6.827
8.96	10.871
9.18	5.596
9.4	4.253
9.62	0.14
9.84	4.23
10.06	6.475
10.28	6.308
10.5	5.076
10.72	2.115
10.94	7.82
11.16	11.627
11.38	2.544
11.6	11.654
11.82	1.848
12.04	15.122
12.26	4.688
12.48	4.158
12.7	7.395
12.92	5.814
13.14	3.156
13.36	4.589
13.58	9.814
13.8	0.896
14.02	2.242
14.24	4.272
14.46	4.289
14.68	9.13
14.9	4.036
15.12	5.193
15.34	3.124
15.56	1.154
15.78	2.089
16	14.469
16.22	4.675
16.44	0.67
16.66	2.704
16.88	3.833
17.1	4.822
17.32	10.801
17.54	3.659
17.76	1.528
17.98	0.606
18.2	2.462
18.42	4.261
18.64	2.984
18.86	4.641
19.08	6.316
19.3	2.995
19.52	0.842
19.74	4.616
19.96	3.414
20.18	6.292
20.4	5.082
20.62	3.015
20.84	4.994
21.06	2.122
21.28	24.468
21.5	3.609
21.72	6.931
21.94	4.75
22.16	6.636
22.38	1.479
22.6	0.732
22.82	4.724
23.04	1.15
23.26	13.728
23.48	3.278
23.7	6.661
23.92	5.191
24.14	136.579
24.36	12.432
24.58	8.478
24.8	9.8
25.02	17.019
25.24	9.485
25.46	5.784
25.68	6.101
25.9	5.193
26.12	1.617
26.34	3.093
26.56	9.899
26.78	99.826
27	4.829
27.22	0.354
27.44	12.955
27.66	4.402
27.88	0.014
28.1	34.645
28.32	27.316
28.54	11.653
28.76	21.58
28.98	25.873
29.2	11.211
29.42	9.52
29.64	5.2
29.86	5.296
30.08	2.625
30.3	3.731
30.52	4.788
30.74	6.765
30.96	3.602
31.18	2.168
31.4	6.808
31.62	13.543
31.84	19.466
32.06	16.707
32.28	21.395
32.5	3.379
32.72	13.411
32.94	4.473
33.16	11.709
33.38	10.215
33.6	6.598
33.82	0.049
34.04	5.073
34.26	0.206
34.48	3.12
34.7	3.667
34.92	7.358
35.14	9.875
35.36	9.367
35.58	1.659
35.8	0.159
36.02	6.372
36.24	4.716
36.46	11.079
36.68	16.243
36.9	9.967
37.12	4.22
37.34	2.033
37.56	6.999
37.78	2.978
38	4.169
38.22	0.033
38.44	4.788
38.66	2.686
38.88	0.462
39.1	1.435
39.32	2.307
39.54	13.082
39.76	3.147
39.98	4.286
40.2	2.195
40.42	5.852
40.64	2.217
40.86	1.709
41.08	4.568
41.3	6.584
41.52	13.605
41.74	4.566
41.96	0.476
42.18	3.148
42.4	5.22
42.62	6.337
42.84	9.476
43.06	1.412
43.28	3.766
43.5	2.029
43.72	4.377
43.94	5.628
44.16	5.076
44.38	9.306
44.6	3.563
44.82	5.581
45.04	3.837
45.26	0.106
45.48	1.126
45.7	5.124
45.92	4.022
46.14	4.796
46.36	3.512
46.58	5.412
46.8	5.298
47.02	7.362
47.24	7.397
47.46	9.394
47.68	5.533
47.9	3.427
48.12	0.33
48.34	4.132
48.56	1.894
48.78	0.523
49	1.231
49.22	5.903
49.44	9.468
49.66	13.101
49.88	4.771
50.1	8.528
50.32	9.66
50.54	7.812
50.76	6.845
50.98	8.074
51.2	11.227
51.42	1.41
51.64	1.44
51.86	12.755
52.08	4.079
52.3	9.328
52.52	13.548
52.74	6.117
52.96	3.236
53.18	4.386
53.4	0.467
53.62	8.585
53.84	0.405
54.06	3.653
54.28	3.561
54.5	6.534
54.72	1.499
54.94	15.304
55.16	9.658
55.38	1.748
55.6	0.879
55.82	4.797
56.04	6.784
56.26	0.07
56.48	3.114
56.7	6.259
56.92	2.277
57.14	7.206
57.36	6.086
57.58	2.864
57.8	3.919
58.02	0.741
58.24	4.786
58.46	0.305
58.68	2.593
58.9	6.334
59.12	5.215
59.34	2.199
59.56	3.274
59.78	0.413
60	12.573
60.22	0.534
60.44	6.87
60.66	6.904
60.88	1.038
61.1	3.152
61.32	4.384
61.54	2.418
61.76	1.633
61.98	1.633
62.2	3.532
62.42	1.431
62.64	0.491
62.86	4.308
63.08	0.283
63.3	4.308
63.52	2.334
63.74	0.461
63.96	2.52
64.18	3.786
64.4	4.901
64.62	5.115
64.84	0.169
65.06	5.048
65.28	2.201
65.5	0.471
65.72	8.442
65.94	6.382
66.16	1.023
66.38	0.922
66.6	8.628
66.82	3.473
67.04	2.348
67.26	3.24
67.48	2.167
67.7	14.25
67.92	1.987
68.14	9.234
68.36	13.257
68.58	5.364
68.8	4.617
69.02	2.688
69.24	4.638
69.46	5.698
69.68	1.772
69.9	8.044
70.12	3.793
70.34	3.899
70.56	5.724
70.78	5.689
71	1.77
71.22	1.693
71.44	4.747
71.66	2.72
71.88	2.753
72.1	0.783
72.32	1.712
72.54	2.597
72.76	4.619
72.98	8.748
73.2	2.834
73.42	2.114
73.64	0.949
73.86	1.16
74.08	2.275
74.3	1.303
74.52	5.398
74.74	0.333
74.96	1.446
75.18	0.522
75.4	3.489
75.62	2.594
75.84	2.685
76.06	4.734
76.28	6.743
76.5	0.242
76.72	5.804
76.94	0.951
77.16	2.981
77.38	2.961
77.6	7.041
77.82	7.01
78.04	3.044
78.26	2.887
78.48	3.774
78.7	4.889
78.92	0.83
79.14	0.291
79.36	9.586
79.58	6.632
79.8	2.535
80.02	2.463
80.24	0.581
80.46	7.524
80.68	6.615
80.9	0.532
81.12	4.432
81.34	0.504
81.56	5.641
81.78	10.702
82	1.652
82.22	1.912
82.44	4.966
82.66	5.875
82.88	0.211
83.1	0.247
83.32	5.818
83.54	4.74
83.76	2.642
83.98	1.594
84.2	2.761
84.42	1.729
84.64	7.453
84.86	2.591
85.08	3.589
85.3	4.652
85.52	6.644
85.74	2.626
85.96	4.636
86.18	0.7
86.4	3.673
86.62	6.495
86.84	5.548
87.06	8.702
87.28	1.642
87.5	2.639
87.72	1.668
87.94	1.741
88.16	2.785
88.38	4.776
88.6	5.757
88.82	5.738
89.04	5.823
89.26	1.625
89.48	5.603
89.7	3.139
89.92	3.522
