Measurement: Powder, Xray Data XY Processed
Mineral: Halite
Rruff sample: R070292
Ideal chemistry: NaCl
Locality: Stassfurt, Stassfurt Deposit, Saxony-Anhalt, Germany
Source: Michael Scott
Description: Blue to colorless cube
Diffraction sample description: Powder
Cell parameters: a: 5.64167(4) b: 5.64167(4) c: 5.64167(4) alpha: 90 beta: 90 gamma: 90 volume: 179.565(4) crystal system: cubic
x	intensity
5	0
5.22	3.64325
5.44	7.44639
5.66	7.3183
5.88	9.05112
6.1	8.13595
6.32	6.19538
6.54	15.4817
6.76	18.2191
6.98	13.9591
7.2	16.343
7.42	23.7102
7.64	1.68586
7.86	11.7185
8.08	10.1244
8.3	1.35325
8.52	5.55295
8.74	4.73507
8.96	7.87926
9.18	9.51131
9.4	2.31309
9.62	10.4218
9.84	11.6193
10.06	6.0065
10.28	6.22409
10.5	5.53224
10.72	0.963017
10.94	2.58928
11.16	5.63267
11.38	5.95813
11.6	6.30182
11.82	0.614521
12.04	2.91925
12.26	2.99491
12.48	3.80027
12.7	4.10008
12.92	5.57215
13.14	5.69132
13.36	5.71721
13.58	2.69182
13.8	8.73741
14.02	6.7313
14.24	0.039261
14.46	11.0184
14.68	5.1426
14.9	5.11658
15.12	10.1116
15.34	1.7573
15.56	7.63598
15.78	7.60517
16	2.54985
16.22	2.60697
16.44	0.620957
16.66	7.70845
16.88	0.739294
17.1	7.71432
17.32	6.76545
17.54	1.27795
17.76	8.94647
17.98	4.99507
18.2	8.08348
18.42	7.10012
18.64	7.05968
18.86	1.24357
19.08	5.07362
19.3	5.98175
19.52	2.87799
19.74	6.80567
19.96	4.61776
20.18	7.31069
20.4	5.26261
20.62	9.32781
20.84	6.30891
21.06	7.92172
21.28	0.082211
21.5	5.09044
21.72	8.14682
21.94	0.818867
22.16	1.38921
22.38	5.70059
22.6	2.79195
22.82	12.8969
23.04	3.962
23.26	4.06731
23.48	5.12073
23.7	4.86524
23.92	7.87264
24.14	8.02516
24.36	10.0146
24.58	4.86109
24.8	5.90369
25.02	1.04316
25.24	4.96004
25.46	5.94294
25.68	6.91598
25.9	0.004559
26.12	1.91238
26.34	3.79921
26.56	6.68042
26.78	10.6384
27	0.409494
27.22	3.20227
27.44	177.079
27.66	6.95117
27.88	1.86816
28.1	2.77664
28.32	9.61285
28.54	9.78364
28.76	6.05902
28.98	5.99875
29.2	7.77766
29.42	1.89758
29.64	5.55293
29.86	3.86124
30.08	4.5927
30.3	1.80057
30.52	3.1158
30.74	8.23485
30.96	0.455169
31.18	16.6126
31.4	5.9372
31.62	129.893
31.84	887.194
32.06	12.3148
32.28	9.56874
32.5	7.84488
32.72	4.31893
32.94	11.7197
33.16	6.54276
33.38	3.185
33.6	1.91928
33.82	3.47074
34.04	9.77254
34.26	10.1776
34.48	4.15836
34.7	11.2871
34.92	0.622345
35.14	6.64709
35.36	1.59903
35.58	1.03159
35.8	12.1142
36.02	6.30044
36.24	0.433371
36.46	5.43735
36.68	0.360006
36.9	0.27089
37.12	6.8737
37.34	1.93563
37.56	7.02368
37.78	5.069
38	1.89314
38.22	6.01985
38.44	10.0312
38.66	4.16035
38.88	3.20657
39.1	0.127365
39.32	3.12303
39.54	4.02832
39.76	10.0029
39.98	8.95677
40.2	3.08336
40.42	6.96107
40.64	6.81115
40.86	26.6833
41.08	8.53914
41.3	0.431803
41.52	14.5755
41.74	2.73392
41.96	5.70492
42.18	1.72331
42.4	4.01178
42.62	1.96677
42.84	8.78067
43.06	3.61269
43.28	9.41973
43.5	11.2828
43.72	11.0107
43.94	4.51895
44.16	2.03722
44.38	0.336792
44.6	4.97867
44.82	3.33938
45.04	6.00897
45.26	31.8177
45.48	1074.78
45.7	63.5416
45.92	12.6107
46.14	9.87194
46.36	0.15999
46.58	1.67566
46.8	4.20206
47.02	7.67921
47.24	5.31473
47.46	8.75371
47.68	3.15339
47.9	8.749
48.12	2.28152
48.34	7.41849
48.56	4.43188
48.78	3.79735
49	2.95921
49.22	5.92283
49.44	1.94523
49.66	7.80498
49.88	5.81561
50.1	14.9197
50.32	3.98392
50.54	4.76791
50.76	9.03675
50.98	9.03824
51.2	8.85431
51.42	4.83947
51.64	6.82057
51.86	0.896252
52.08	5.87885
52.3	2.04586
52.52	5.82293
52.74	4.75701
52.96	5.80314
53.18	4.42995
53.4	8.43959
53.62	0.713593
53.84	20.0762
54.06	11.8639
54.28	7.84896
54.5	6.22365
54.72	8.91131
54.94	6.56096
55.16	5.4465
55.38	3.2197
55.6	2.12304
55.82	4.91028
56.04	9.98155
56.26	10.9398
56.48	257.064
56.7	67.9726
56.92	4.8698
57.14	4.37262
57.36	6.51782
57.58	4.72616
57.8	4.8991
58.02	1.13988
58.24	4.64234
58.46	5.40104
58.68	4.5505
58.9	3.54303
59.12	3.99043
59.34	8.92048
59.56	2.447
59.78	4.40949
60	2.44822
60.22	0.424369
60.44	3.58994
60.66	2.69922
60.88	1.77197
61.1	5.93934
61.32	3.11737
61.54	2.02835
61.76	4.04811
61.98	8.16502
62.2	1.30741
62.42	6.32762
62.64	0.622439
62.86	4.39713
63.08	4.40209
63.3	2.3378
63.52	4.47823
63.74	10.6941
63.96	4.39449
64.18	3.3102
64.4	7.20494
64.62	5.94572
64.84	3.77728
65.06	0.567174
65.28	7.33451
65.5	7.19409
65.72	0.01912
65.94	7.69166
66.16	36.6102
66.38	43.9052
66.6	6.07548
66.82	3.28003
67.04	6.80288
67.26	6.91077
67.48	4.19252
67.7	5.39892
67.92	3.4945
68.14	5.57827
68.36	2.49786
68.58	1.71754
68.8	4.19174
69.02	2.90725
69.24	4.89065
69.46	6.45946
69.68	0.458548
69.9	2.323
70.12	1.25547
70.34	0.573087
70.56	3.55687
70.78	6.85757
71	4.01131
71.22	1.80357
71.44	10.0376
71.66	1.89529
71.88	6.7574
72.1	3.6414
72.32	3.49452
72.54	3.4152
72.76	2.2342
72.98	6.9874
73.2	7.54264
73.42	10.5341
73.64	3.6692
73.86	1.25036
74.08	3.10124
74.3	1.97621
74.52	0.904533
74.74	14.8251
74.96	8.76054
75.18	26.6931
75.4	82.7442
75.62	44.9454
75.84	4.62376
76.06	3.90928
76.28	0.050771
76.5	0.198487
76.72	2.40657
76.94	5.73221
77.16	4.00429
77.38	0.197226
77.6	0.210353
77.82	4.35085
78.04	1.28246
78.26	5.55994
78.48	11.4004
78.7	3.5761
78.92	10.8658
79.14	9.71296
79.36	3.87864
79.58	5.79428
79.8	0.148708
80.02	1.12842
80.24	8.95123
80.46	6.04256
80.68	2.02161
80.9	0.048063
81.12	2.83471
81.34	6.66341
81.56	5.61612
81.78	4.56135
82	9.54933
82.22	4.31224
82.44	14.3257
82.66	6.85498
82.88	0.672749
83.1	8.28672
83.32	1.12066
83.54	6.83122
83.76	3.90682
83.98	93.899
84.2	43.8186
84.42	9.95137
84.64	6.19696
84.86	2.29731
85.08	0.079258
85.3	6.28662
85.52	5.5192
85.74	0.197
85.96	5.11827
86.18	4.1309
86.4	11.1584
86.62	5.23195
86.84	3.18237
87.06	1.10119
87.28	4.24236
87.5	1.74157
87.72	3.81066
87.94	1.94877
88.16	1.97812
88.38	2.1511
88.6	2.32949
88.82	15.4889
89.04	5.70026
89.26	1.77627
89.48	8.20834
89.7	10.7236
89.92	7.54733
