Measurement: Powder, Xray Data XY Processed
Mineral: Halotrichite
Rruff sample: R060118
Ideal chemistry: Fe^2+^Al_2_(S^6+^O_4_)_4_22H_2_O
Locality: Alum Canyon, Patagonia Mountains, Arizona, USA
Source: University of Arizona Mineral Museum
Description: Colorless acicular single crystals
Diffraction sample description: Powder
Cell parameters: a: 6.184(1) b: 24.257(3) c: 21.230(2) alpha: 90 beta: 100.333(8) gamma: 90 volume: 3133.1(4) crystal system: monoclinic
x	intensity
5	0
5.22	10.451
5.44	7.442
5.66	21.73
5.88	15.324
6.1	15.215
6.32	7.52
6.54	4.687
6.76	6.401
6.98	15.8
7.2	12.223
7.42	10.9
7.64	7.291
7.86	3.144
8.08	2.193
8.3	11.543
8.52	40.729
8.74	12.444
8.96	14.656
9.18	28.643
9.4	11.935
9.62	24.693
9.84	11.854
10.06	12.955
10.28	4.26
10.5	6.235
10.72	6.884
10.94	15.427
11.16	42.47
11.38	17.108
11.6	13.43
11.82	4.425
12.04	15.469
12.26	16.855
12.48	1.475
12.7	3.665
12.92	9.221
13.14	14.683
13.36	19.894
13.58	0.831
13.8	22.613
14.02	22.954
14.24	8.489
14.46	21.688
14.68	121.723
14.9	16.495
15.12	14.82
15.34	13.916
15.56	9.074
15.78	14.392
16	1.441
16.22	19.491
16.44	6.878
16.66	7.858
16.88	18.447
17.1	4.404
17.32	0.401
17.54	9.946
17.76	14.025
17.98	97.62
18.2	67.287
18.42	55.062
18.64	19.35
18.86	8.893
19.08	46.904
19.3	69.118
19.52	8.397
19.74	3.839
19.96	0.379
20.18	24.816
20.4	28.067
20.62	71.355
20.84	12.92
21.06	10.149
21.28	17.222
21.5	13.698
21.72	41.23
21.94	0.299
22.16	2.083
22.38	21.069
22.6	15.746
22.82	3.571
23.04	3.019
23.26	3.906
23.48	21.339
23.7	13.552
23.92	4.074
24.14	13.354
24.36	44.631
24.58	7.864
24.8	7.014
25.02	5.946
25.24	5.799
25.46	236.17
25.68	23.121
25.9	27.003
26.12	2.304
26.34	6.294
26.56	6.487
26.78	39.967
27	8.411
27.22	35.827
27.44	11.016
27.66	1.043
27.88	14.484
28.1	35.877
28.32	17.438
28.54	7.029
28.76	2.199
28.98	0.57
29.2	20.985
29.42	29.408
29.64	30.165
29.86	10.71
30.08	23.846
30.3	3.242
30.52	8.909
30.74	9.449
30.96	53.478
31.18	19.343
31.4	18.772
31.62	21.109
31.84	13.701
32.06	13.792
32.28	14.108
32.5	12.597
32.72	9.066
32.94	13.088
33.16	23.434
33.38	24.043
33.6	8.942
33.82	6.814
34.04	4.991
34.26	9.814
34.48	19.661
34.7	8.277
34.92	13.574
35.14	45.732
35.36	7.171
35.58	3.169
35.8	5.93
36.02	9.45
36.24	10.999
36.46	13.605
36.68	35.938
36.9	13.915
37.12	9.531
37.34	16.878
37.56	12.269
37.78	15.597
38	12.669
38.22	16.333
38.44	18.811
38.66	7.322
38.88	18.317
39.1	11.017
39.32	13.4
39.54	20.135
39.76	5.897
39.98	5.491
40.2	11.382
40.42	20.604
40.64	21.604
40.86	6.967
41.08	12.703
41.3	8.151
41.52	11.995
41.74	9.392
41.96	6.673
42.18	10.027
42.4	10.64
42.62	17.478
42.84	6.595
43.06	1.702
43.28	16.561
43.5	4.983
43.72	3.485
43.94	27.562
44.16	5.259
44.38	1.654
44.6	4.169
44.82	16.599
45.04	13.311
45.26	15.585
45.48	12.039
45.7	2.531
45.92	8.39
46.14	13.213
46.36	1.606
46.58	7.063
46.8	14.077
47.02	15.637
47.24	0.364
47.46	0.197
47.68	17.155
47.9	13.209
48.12	20.829
48.34	23.384
48.56	27.948
48.78	22.029
49	19.081
49.22	14.777
49.44	17.306
49.66	7.271
49.88	9.182
50.1	15.346
50.32	7.667
50.54	6.243
50.76	11.785
50.98	5.305
51.2	9.413
51.42	21.437
51.64	1.529
51.86	13.422
52.08	11.256
52.3	5.28
52.52	5.983
52.74	4.415
52.96	4.983
53.18	10.85
53.4	9.373
53.62	6.004
53.84	7.343
54.06	6.628
54.28	27.053
54.5	2.732
54.72	4.966
54.94	6.122
55.16	17.997
55.38	18.934
55.6	9.994
55.82	12.318
56.04	11.101
56.26	12.978
56.48	3.137
56.7	4.042
56.92	12.936
57.14	16.082
57.36	6.93
57.58	3.103
57.8	7.15
58.02	15.731
58.24	23.51
58.46	9.583
58.68	5.013
58.9	7.317
59.12	9.39
59.34	7.458
59.56	14.462
59.78	1.771
60	5.5
60.22	7.787
60.44	0.629
60.66	10.422
60.88	19.491
61.1	5.631
61.32	7.721
61.54	8.647
61.76	6.727
61.98	11.845
62.2	0.251
62.42	4.788
62.64	11.933
62.86	4.013
63.08	5.166
63.3	1.734
63.52	2.153
63.74	3.099
63.96	4.567
64.18	6.708
64.4	3.551
64.62	12.501
64.84	21.596
65.06	10.852
65.28	12.91
65.5	8.174
65.72	5.245
65.94	14.188
66.16	2.303
66.38	12.079
66.6	2.701
66.82	7.818
67.04	9.884
67.26	8.088
67.48	8.818
67.7	0.1
67.92	11.913
68.14	18.945
68.36	7.225
68.58	10.403
68.8	12.34
69.02	12.016
69.24	9.122
69.46	0.669
69.68	14.609
69.9	10.536
70.12	14.62
70.34	6.063
70.56	2.212
70.78	5.707
71	1.813
71.22	17.326
71.44	13.637
71.66	9.857
71.88	5.13
72.1	14.924
72.32	10.123
72.54	11.739
72.76	14.984
72.98	13.064
73.2	14.276
73.42	14.412
73.64	22.984
73.86	12.365
74.08	8.488
74.3	15.305
74.52	4.817
74.74	14.747
74.96	5.255
75.18	10.217
75.4	8.21
75.62	11.348
75.84	23.237
76.06	7.275
76.28	6.751
76.5	5.299
76.72	13.33
76.94	5.548
77.16	7.718
77.38	14.443
77.6	2.218
77.82	6.116
78.04	3.799
78.26	3.105
78.48	9.038
78.7	10.025
78.92	14.148
79.14	6.22
79.36	6.302
79.58	4.249
79.8	5.992
80.02	8.656
80.24	14.717
80.46	8.892
80.68	1.716
80.9	12.832
81.12	15.056
81.34	8.962
81.56	3.003
81.78	2.307
82	10.756
82.22	14.744
82.44	7.84
82.66	4.239
82.88	1.073
83.1	6.99
83.32	9.919
83.54	7.654
83.76	12.784
83.98	1.668
84.2	13.419
84.42	1.968
84.64	11.043
84.86	3.645
85.08	16.339
85.3	3.531
85.52	11.762
85.74	5.924
85.96	13.25
86.18	3.182
86.4	14.262
86.62	3.585
86.84	1.26
87.06	7.333
87.28	10.732
87.5	5.944
87.72	16.148
87.94	1.077
88.16	11.055
88.38	8.983
88.6	12.929
88.82	5.815
89.04	6.79
89.26	5.223
89.48	22.561
89.7	5.632
89.92	9.141
