Measurement: Powder, Xray Data XY Processed
Mineral: Hanksite
Rruff sample: R050291
Ideal chemistry: KNa_22_(S^6+^O_4_)_9_(CO_3_)_2_Cl
Locality: Searles Lake, Trona, San Bernardino County, California, USA
Source: Marcus Origlieri
Description: Pale yellow hexagonal prism with pyramidal terminations
Diffraction sample description: Powder
Measured chemistry: K_1.00_(Na_21.65_K_0.35_)_Î£=22_(S_1.00_O_4_)_9_(CO_3_)_2_Cl_1.00_
Cell parameters: a: 10.4908(2) b: 10.4908(2) c: 21.2401(9) alpha: 90 beta: 90 gamma: 120 volume: 2024.4(0) crystal system: hexagonal
x	intensity
5	0
5.22	10.7821
5.44	13.8812
5.66	6.50528
5.88	2.14839
6.1	5.81667
6.32	6.49439
6.54	4.22459
6.76	1.02714
6.98	9.68787
7.2	15.1288
7.42	8.93723
7.64	3.00608
7.86	4.75783
8.08	6.29307
8.3	6.80324
8.52	4.31661
8.74	2.92121
8.96	1.67163
9.18	5.55337
9.4	0.162848
9.62	1.00525
9.84	17.9131
10.06	6.47353
10.28	5.39724
10.5	4.48272
10.72	0.606867
10.94	13.619
11.16	1.54141
11.38	8.9542
11.6	5.01173
11.82	0.280289
12.04	6.41676
12.26	1.68271
12.48	1.80724
12.7	4.97764
12.92	3.92573
13.14	1.01324
13.36	0.896111
13.58	9.46871
13.8	6.21379
14.02	1.32511
14.24	5.06293
14.46	12.5935
14.68	2.50991
14.9	4.53787
15.12	6.48473
15.34	6.40937
15.56	8.64401
15.78	5.61303
16	5.3764
16.22	7.25929
16.44	7.03346
16.66	14.1543
16.88	40.0356
17.1	13.0825
17.32	2.29333
17.54	0.638592
17.76	7.76707
17.98	14.7004
18.2	8.87449
18.42	0.080009
18.64	10.0357
18.86	3.45573
19.08	11.3959
19.3	0.619653
19.52	24.4948
19.74	11.6029
19.96	4.49431
20.18	7.46731
20.4	1.77234
20.62	0.967299
20.84	0.931571
21.06	11.9838
21.28	7.62624
21.5	0.25721
21.72	5.22538
21.94	7.74096
22.16	3.31704
22.38	0.991044
22.6	7.70268
22.82	5.06803
23.04	21.7822
23.26	369.624
23.48	20.6907
23.7	4.68743
23.92	11.9313
24.14	7.59281
24.36	1.49677
24.58	0.440182
24.8	0.639664
25.02	17.2487
25.24	167.112
25.46	10.1311
25.68	6.3844
25.9	34.1125
26.12	11.7665
26.34	91.714
26.56	6.17679
26.78	8.63176
27	14.8336
27.22	8.69889
27.44	5.04551
27.66	4.48248
27.88	2.32337
28.1	15.2608
28.32	4.77608
28.54	13.1165
28.76	3.04556
28.98	8.38513
29.2	7.22975
29.42	8.10786
29.64	19.3196
29.86	0.001397
30.08	0.538447
30.3	1.38985
30.52	24.3101
30.74	5.59116
30.96	12.992
31.18	44.5959
31.4	2.17973
31.62	8.95688
31.84	6.7278
32.06	709.895
32.28	37.9643
32.5	4.84858
32.72	1.54904
32.94	3.12281
33.16	4.09167
33.38	14.0272
33.6	43.2405
33.82	10.7981
34.04	34.2413
34.26	403.507
34.48	19.159
34.7	3.96319
34.92	4.1718
35.14	2.50208
35.36	9.7107
35.58	17.9441
35.8	9.47612
36.02	44.6188
36.24	1.20989
36.46	26.4379
36.68	67.7848
36.9	5.1457
37.12	0.447511
37.34	1.30666
37.56	4.36913
37.78	1.50749
38	14.5983
38.22	10.4497
38.44	2.83205
38.66	8.00071
38.88	7.7035
39.1	12.625
39.32	12.8886
39.54	45.4864
39.76	27.0198
39.98	10.0099
40.2	9.21391
40.42	5.58934
40.64	7.55932
40.86	13.4367
41.08	7.35529
41.3	8.31416
41.52	7.21133
41.74	13.4239
41.96	15.9192
42.18	0.628531
42.4	1.48094
42.62	4.23945
42.84	3.04193
43.06	51.1656
43.28	11.3748
43.5	4.83706
43.72	13.1753
43.94	9.35728
44.16	4.84596
44.38	0.065033
44.6	8.24658
44.82	7.32386
45.04	6.51993
45.26	5.63992
45.48	15.4072
45.7	0.0813
45.92	3.68116
46.14	4.105
46.36	11.5612
46.58	8.92712
46.8	14.5268
47.02	9.43774
47.24	7.06401
47.46	27.108
47.68	79.5734
47.9	7.43359
48.12	5.57375
48.34	3.10926
48.56	8.18022
48.78	14.1259
49	17.1553
49.22	7.13916
49.44	2.97154
49.66	4.83539
49.88	17.6226
50.1	8.04449
50.32	11.1947
50.54	30.0169
50.76	12.517
50.98	28.1213
51.2	0.218712
51.42	6.02351
51.64	118.25
51.86	5.48396
52.08	2.82196
52.3	2.0628
52.52	5.87713
52.74	9.71715
52.96	25.0218
53.18	14.1565
53.4	22.6167
53.62	8.59849
53.84	9.73212
54.06	5.08629
54.28	6.35346
54.5	5.59828
54.72	10.7215
54.94	14.9898
55.16	6.30621
55.38	7.4141
55.6	8.45151
55.82	9.46944
56.04	2.55887
56.26	12.8591
56.48	24.8829
56.7	26.1041
56.92	11.0321
57.14	12.2141
57.36	4.97235
57.58	10.1261
57.8	0.007995
58.02	10.8107
58.24	2.25822
58.46	0.518786
58.68	7.04843
58.9	10.6205
59.12	2.30254
59.34	11.3731
59.56	5.06688
59.78	10.0068
60	23.9264
60.22	2.89558
60.44	5.90907
60.66	5.11101
60.88	0.980904
61.1	9.98871
61.32	15.1549
61.54	2.88096
61.76	1.50724
61.98	6.43986
62.2	3.12967
62.42	10.1431
62.64	4.17162
62.86	10.3659
63.08	3.42513
63.3	15.8829
63.52	29.233
63.74	8.29708
63.96	3.54933
64.18	4.8234
64.4	8.15887
64.62	1.76053
64.84	2.00559
65.06	8.23283
65.28	7.17392
65.5	2.22117
65.72	0.684325
65.94	15.7309
66.16	5.72085
66.38	2.70527
66.6	5.6996
66.82	8.62398
67.04	8.22248
67.26	49.1959
67.48	23.1808
67.7	4.14244
67.92	5.13895
68.14	10.4649
68.36	0.355245
68.58	2.80627
68.8	4.0063
69.02	5.11298
69.24	8.13247
69.46	6.45038
69.68	9.79329
69.9	3.93963
70.12	7.98695
70.34	8.0419
70.56	4.19413
70.78	1.97296
71	6.92154
71.22	10.138
71.44	8.08189
71.66	7.05454
71.88	5.70168
72.1	8.36467
72.32	1.70293
72.54	5.17262
72.76	4.01849
72.98	4.78607
73.2	2.89271
73.42	6.9499
73.64	2.71804
73.86	1.8212
74.08	9.24875
74.3	2.47733
74.52	2.69485
74.74	1.75171
74.96	3.17221
75.18	4.37905
75.4	7.76753
75.62	3.68691
75.84	3.78018
76.06	2.67559
76.28	0.659949
76.5	2.21798
76.72	4.09695
76.94	3.19568
77.16	2.19362
77.38	11.9607
77.6	14.8018
77.82	10.5571
78.04	3.347
78.26	5.95849
78.48	3.84081
78.7	5.7286
78.92	3.62422
79.14	0.488746
79.36	8.14399
79.58	4.86611
79.8	0.224855
80.02	0.561637
80.24	7.48936
80.46	9.24422
80.68	7.08791
80.9	12.3959
81.12	2.52568
81.34	3.01717
81.56	0.46458
81.78	4.9376
82	4.05175
82.22	7.3485
82.44	0.623705
82.66	4.7375
82.88	4.55229
83.1	0.447433
83.32	9.2356
83.54	6.98052
83.76	2.60795
83.98	10.1176
84.2	0.849385
84.42	5.76086
84.64	1.66735
84.86	10.0659
85.08	6.36317
85.3	8.43749
85.52	3.53369
85.74	3.54046
85.96	0.300468
86.18	0.831332
86.4	7.88852
86.62	3.85119
86.84	3.82177
87.06	1.73403
87.28	3.1252
87.5	3.83797
87.72	10.9712
87.94	5.13028
88.16	11.2462
88.38	6.36154
88.6	0.578773
88.82	5.9142
89.04	0.319038
89.26	0.789457
89.48	8.25596
89.7	13.7417
89.92	4.76767
