Measurement: Powder, Xray Data XY Processed
Mineral: Hardystonite
Rruff sample: R040026
Ideal chemistry: Ca_2_Zn^2+^Si_2_O_7_
Locality: Franklin, Sussex County, New Jersey, USA
Source: University of Arizona Mineral Museum
Description: White massive
Diffraction sample description: Powder
Measured chemistry: (Ca_1.98_Mn_0.02_)_Σ=2_(Zn_0.99_Al_0.01_)_Σ=1_(Si_1.99_Al_0.01_)_Σ=2_O_7_
Cell parameters: a: 7.8277(3) b: 7.8277(3) c: 5.0180(3) alpha: 90. beta: 90. gamma: 90. volume: 307.47(3) crystal system: tetragonal
x	intensity
5	0
5.22	14.839
5.44	9.035
5.66	3.679
5.88	8.668
6.1	5.919
6.32	4.124
6.54	9.566
6.76	7.862
6.98	4.222
7.2	6.591
7.42	7.175
7.64	3.592
7.86	5.035
8.08	9.57
8.3	7.113
8.52	4.443
8.74	5.807
8.96	0.075
9.18	9.226
9.4	1.357
9.62	3.192
9.84	6.139
10.06	8.29
10.28	5.345
10.5	6.256
10.72	5.092
10.94	0.81
11.16	3.667
11.38	9.532
11.6	1.669
11.82	8.63
12.04	3.699
12.26	7.767
12.48	1.695
12.7	2.768
12.92	4.869
13.14	1.859
13.36	1.342
13.58	0.435
13.8	9.036
14.02	0.885
14.24	6.24
14.46	7.504
14.68	3.62
14.9	0.31
15.12	3.654
15.34	3.783
15.56	1.336
15.78	1.858
16	8.762
16.22	0.392
16.44	10.227
16.66	3.081
16.88	3.719
17.1	5.683
17.32	2.764
17.54	3.804
17.76	181.811
17.98	5.883
18.2	0.324
18.42	13.811
18.64	0.107
18.86	8.988
19.08	4.025
19.3	9.372
19.52	1.472
19.74	6.468
19.96	6.359
20.18	4.126
20.4	5.04
20.62	0.946
20.84	6.919
21.06	22.688
21.28	16.758
21.5	5.526
21.72	1.563
21.94	4.374
22.16	6.069
22.38	11.404
22.6	1.219
22.82	10.016
23.04	3.729
23.26	6.415
23.48	6.215
23.7	10.847
23.92	56.976
24.14	64.772
24.36	7.652
24.58	3.513
24.8	3.415
25.02	4.731
25.24	6.993
25.46	8.345
25.68	2.72
25.9	0.958
26.12	11.182
26.34	6.388
26.56	1.227
26.78	11.612
27	6.435
27.22	6.048
27.44	5.593
27.66	2.899
27.88	0.45
28.1	13.957
28.32	15.385
28.54	5.069
28.76	12.498
28.98	190.027
29.2	51.552
29.42	15.22
29.64	3.889
29.86	7.571
30.08	5.664
30.3	6.989
30.52	5.679
30.74	6.449
30.96	25.529
31.18	257.467
31.4	128.495
31.62	15.63
31.84	7.147
32.06	0.306
32.28	12.336
32.5	62.335
32.72	4.483
32.94	6.44
33.16	3.284
33.38	5.604
33.6	2.657
33.82	8.864
34.04	2.184
34.26	5.639
34.48	1.404
34.7	0.879
34.92	5.247
35.14	6.258
35.36	0.548
35.58	8.716
35.8	26.123
36.02	12.238
36.24	32.513
36.46	95.177
36.68	11.446
36.9	5.894
37.12	37.607
37.34	10.13
37.56	16.446
37.78	36.016
38	6.542
38.22	7.925
38.44	2.276
38.66	8.853
38.88	13.207
39.1	23.629
39.32	5.325
39.54	30.869
39.76	7.739
39.98	9.905
40.2	7.927
40.42	6.11
40.64	17.303
40.86	20.779
41.08	5.945
41.3	1.472
41.52	1.802
41.74	0.852
41.96	0.535
42.18	3.666
42.4	7.056
42.62	7.158
42.84	2.046
43.06	5.927
43.28	3.578
43.5	3.108
43.72	4.768
43.94	1.568
44.16	8.738
44.38	15.638
44.6	39.444
44.82	7.057
45.04	7.906
45.26	5.023
45.48	5.015
45.7	11.021
45.92	6.352
46.14	3.284
46.36	0.929
46.58	7.738
46.8	3.704
47.02	3.665
47.24	5.728
47.46	8.514
47.68	9.562
47.9	13.22
48.12	11.772
48.34	4.199
48.56	3.784
48.78	13.681
49	23.271
49.22	25.27
49.44	20.022
49.66	17.115
49.88	13.925
50.1	13.727
50.32	10.577
50.54	5.387
50.76	1.808
50.98	3.06
51.2	3.48
51.42	29.113
51.64	32.579
51.86	52.363
52.08	83.898
52.3	53.313
52.52	25.219
52.74	11.153
52.96	23.957
53.18	2.934
53.4	0.871
53.62	2.583
53.84	3.288
54.06	2.887
54.28	14.497
54.5	3.851
54.72	2.787
54.94	9.858
55.16	4.514
55.38	3.534
55.6	11.183
55.82	16.374
56.04	21.741
56.26	14.95
56.48	6.114
56.7	6.179
56.92	1.389
57.14	1.348
57.36	5.244
57.58	19.37
57.8	14.223
58.02	7.281
58.24	3.969
58.46	8.21
58.68	4.046
58.9	4.934
59.12	4.82
59.34	12.695
59.56	3.561
59.78	0.32
60	6.182
60.22	25.069
60.44	11.9
60.66	12.824
60.88	1.596
61.1	2.487
61.32	11.476
61.54	26.712
61.76	12.911
61.98	0.831
62.2	2.697
62.42	4.73
62.64	4.801
62.86	2.894
63.08	1.763
63.3	9.341
63.52	21.471
63.74	4.492
63.96	3.16
64.18	3.085
64.4	3.04
64.62	0.96
64.84	10.435
65.06	25.939
65.28	24.786
65.5	8.449
65.72	6.9
65.94	0.47
66.16	4.285
66.38	6.026
66.6	6.802
66.82	1.665
67.04	23.504
67.26	13.586
67.48	16.094
67.7	11.466
67.92	17.95
68.14	3.577
68.36	4.83
68.58	3.551
68.8	5.878
69.02	1.272
69.24	3.471
69.46	10.346
69.68	3.237
69.9	0.24
70.12	1.189
70.34	4.901
70.56	7.861
70.78	11.78
71	7.522
71.22	2.486
71.44	2.372
71.66	5.403
71.88	6.424
72.1	1.762
72.32	11.187
72.54	10.18
72.76	9.187
72.98	4.15
73.2	5.124
73.42	4.064
73.64	1.053
73.86	7.946
74.08	7.325
74.3	6.079
74.52	0.654
74.74	5.088
74.96	5.732
75.18	1.484
75.4	10.174
75.62	1.968
75.84	25.736
76.06	13.649
76.28	2.736
76.5	9.65
76.72	8.949
76.94	14.245
77.16	11.926
77.38	10.195
77.6	0.373
77.82	2.063
78.04	5.284
78.26	4.547
78.48	3.512
78.7	1.561
78.92	8.086
79.14	3.372
79.36	13.262
79.58	12.689
79.8	0.601
80.02	9.29
80.24	9.079
80.46	2.12
80.68	4.093
80.9	7.381
81.12	5.702
81.34	8.05
81.56	11.692
81.78	1.79
82	0.831
82.22	0.512
82.44	1.601
82.66	5.629
82.88	9.649
83.1	5.866
83.32	10.691
83.54	5.497
83.76	9.123
83.98	9.917
84.2	2.357
84.42	5.462
84.64	2.973
84.86	7.699
85.08	7.458
85.3	2.465
85.52	0.078
85.74	0.678
85.96	13.648
86.18	10.649
86.4	8.673
86.62	1.173
86.84	7.957
87.06	8.425
87.28	10.847
87.5	6.333
87.72	1.648
87.94	3
88.16	7.413
88.38	3.764
88.6	6.185
88.82	4.484
89.04	8.943
89.26	9.097
89.48	4.752
89.7	3.12
89.92	2.567
