Measurement: Powder, Xray Data XY Processed
Mineral: Hastingsite
Rruff sample: R070194
Ideal chemistry: NaCa_2_(Fe^2+^_4_Fe^3+^)(Si_6_Al_2_)O_22_(OH)_2_
Locality: Seglenge, Sweden
Source: California Institute of Technology
Description: Black cleavage fragment
Diffraction sample description: Powder
Measured chemistry: (Na_0.39_K_0.32_[box]_0.29_)_Σ=1_(Ca_1.75_Na_0.25_)_Σ=2_((Fe^2+^_3.52_Mg_0.34_Mn_0.12_)_Σ=3.98_(Fe^3+^_0.66_Ti_0.24_Al_0.12_)_Σ=1.02_)_Σ=5_(Si_6.28_Al_1.64_)O_22_((OH)_1.79_F_0.17_Cl_0.04_)_Σ=2_; (OH) estimated by difference
Cell parameters: a: 9.9589(3) b: 18.216(2) c: 5.344(1) alpha: 90 beta: 105.011(5) gamma: 90 volume: 936.3(1) crystal system: monoclinic
x	intensity
5	0
5.22	19.6826
5.44	15.1988
5.66	25.806
5.88	36.2028
6.1	26.9532
6.32	39.7957
6.54	35.2327
6.76	44.3816
6.98	28.3036
7.2	17.2765
7.42	31.8267
7.64	7.6971
7.86	2.55034
8.08	16.5097
8.3	20.203
8.52	16.2577
8.74	202.534
8.96	34.9328
9.18	16.693
9.4	28.3006
9.62	19.5868
9.84	18.7953
10.06	2.56559
10.28	99.2552
10.5	98.5453
10.72	19.1531
10.94	15.0122
11.16	0.424583
11.38	14.9074
11.6	0.717339
11.82	1.35591
12.04	48.4039
12.26	6.57838
12.48	23.3037
12.7	0.360519
12.92	10.8579
13.14	9.19988
13.36	9.49403
13.58	31.5664
13.8	24.2378
14.02	6.74304
14.24	33.8153
14.46	18.5773
14.68	6.63098
14.9	8.77437
15.12	23.9162
15.34	0.548241
15.56	14.7144
15.78	27.5628
16	12.8805
16.22	23.9836
16.44	4.2418
16.66	29.8611
16.88	13.8579
17.1	19.6663
17.32	4.94043
17.54	21.4135
17.76	20.8091
17.98	12.7609
18.2	18.8348
18.42	73.949
18.64	35.6679
18.86	24.1888
19.08	7.75507
19.3	23.4014
19.52	52.8085
19.74	21.7141
19.96	16.7174
20.18	26.3703
20.4	12.6748
20.62	5.56727
20.84	20.1533
21.06	31.3062
21.28	0.413826
21.5	18.7656
21.72	16.775
21.94	5.97672
22.16	17.6859
22.38	27.606
22.6	14.4309
22.82	30.9287
23.04	35.0068
23.26	36.5673
23.48	37.6634
23.7	25.7742
23.92	43.4536
24.14	16.5735
24.36	15.8104
24.58	1.8169
24.8	0.398094
25.02	6.88818
25.24	11.9586
25.46	40.97
25.68	5.42116
25.9	36.1941
26.12	83.9263
26.34	41.657
26.56	32.0314
26.78	2.31661
27	114.472
27.22	14.6982
27.44	28.4588
27.66	2.76541
27.88	45.2916
28.1	44.4338
28.32	388.056
28.54	22.6923
28.76	18.5642
28.98	20.8421
29.2	17.6417
29.42	24.3594
29.64	9.31029
29.86	2.4377
30.08	34.8249
30.3	38.9341
30.52	18.6445
30.74	12.1834
30.96	16.5174
31.18	21.9965
31.4	23.5321
31.62	44.9462
31.84	10.5235
32.06	18.2791
32.28	15.0356
32.5	70.3303
32.72	25.884
32.94	41.2494
33.16	21.3677
33.38	33.5958
33.6	2.81796
33.82	19.9376
34.04	19.1991
34.26	97.8522
34.48	22.634
34.7	13.124
34.92	51.6695
35.14	13.5124
35.36	21.707
35.58	42.436
35.8	15.2172
36.02	18.4272
36.24	30.516
36.46	22.5122
36.68	25.6045
36.9	11.8731
37.12	6.14693
37.34	37.597
37.56	18.5463
37.78	10.114
38	55.117
38.22	36.3803
38.44	3.80008
38.66	30.7348
38.88	17.6982
39.1	30.1459
39.32	1.90534
39.54	9.44182
39.76	7.74498
39.98	36.3856
40.2	21.6099
40.42	19.7898
40.64	1.71654
40.86	14.062
41.08	13.5389
41.3	30.2806
41.52	49.7585
41.74	21.0915
41.96	22.9772
42.18	1.81436
42.4	24.1766
42.62	9.14108
42.84	7.5634
43.06	16.2756
43.28	14.6174
43.5	26.9796
43.72	3.48891
43.94	47.4192
44.16	43.4378
44.38	37.1887
44.6	55.8721
44.82	36.9052
45.04	41.3713
45.26	15.7605
45.48	9.22274
45.7	22.536
45.92	20.718
46.14	6.33659
46.36	36.2329
46.58	9.34067
46.8	3.43721
47.02	27.4987
47.24	13.185
47.46	5.64394
47.68	39.7698
47.9	44.0715
48.12	0.435402
48.34	16.2865
48.56	6.26714
48.78	2.42922
49	14.7549
49.22	11.049
49.44	4.38171
49.66	21.0137
49.88	37.9765
50.1	41.1863
50.32	14.6075
50.54	19.2986
50.76	29.2365
50.98	18.126
51.2	27.1105
51.42	36.4366
51.64	17.1198
51.86	27.3015
52.08	11.8419
52.3	14.758
52.52	23.2552
52.74	8.395
52.96	12.7907
53.18	8.08728
53.4	23.8852
53.62	10.9705
53.84	28.0814
54.06	10.6286
54.28	16.1856
54.5	24.07
54.72	23.317
54.94	6.51933
55.16	80.5397
55.38	18.4678
55.6	38.3947
55.82	26.5537
56.04	8.88573
56.26	40.8884
56.48	46.2385
56.7	17.7635
56.92	20.6466
57.14	17.0197
57.36	2.22359
57.58	31.0321
57.8	51.5114
58.02	17.665
58.24	9.14256
58.46	28.8684
58.68	31.926
58.9	28.9555
59.12	22.1614
59.34	37.4787
59.56	17.1975
59.78	22.986
60	17.8676
60.22	31.2156
60.44	5.9451
60.66	20.2349
60.88	18.1429
61.1	26.8068
61.32	29.0988
61.54	18.8427
61.76	37.8345
61.98	37.087
62.2	3.98264
62.42	27.0139
62.64	22.2984
62.86	10.2979
63.08	35.0063
63.3	34.5093
63.52	19.3355
63.74	34.0101
63.96	140.469
64.18	49.4476
64.4	34.5513
64.62	14.5884
64.84	4.5397
65.06	4.46839
65.28	11.9119
65.5	15.882
65.72	15.8144
65.94	13.2165
66.16	36.3809
66.38	24.2991
66.6	4.73828
66.82	20.7748
67.04	16.9688
67.26	21.8024
67.48	2.85978
67.7	6.68443
67.92	21.1155
68.14	45.3606
68.36	26.4593
68.58	25.6408
68.8	25.4235
69.02	7.13722
69.24	27.2833
69.46	35.6996
69.68	28.9258
69.9	28.2038
70.12	23.1921
70.34	39.7628
70.56	6.20689
70.78	27.5048
71	25.7791
71.22	32.2669
71.44	14.6547
71.66	6.24789
71.88	16.0221
72.1	26.7227
72.32	24.9233
72.54	24.3778
72.76	10.5914
72.98	4.79049
73.2	26.6333
73.42	39.9744
73.64	5.67841
73.86	28.1207
74.08	3.52037
74.3	28.5818
74.52	11.7502
74.74	22.7092
74.96	25.885
75.18	37.9171
75.4	18.2991
75.62	9.24583
75.84	30.8938
76.06	15.5157
76.28	1.70379
76.5	11.397
76.72	2.97647
76.94	16.0744
77.16	16.7987
77.38	12.3782
77.6	15.7851
77.82	18.9258
78.04	27.2578
78.26	21.2395
78.48	9.76575
78.7	16.1097
78.92	29.0404
79.14	38.144
79.36	26.1783
79.58	16.8211
79.8	16.051
80.02	36.6106
80.24	4.91861
80.46	24.1294
80.68	0.609314
80.9	7.97662
81.12	20.9193
81.34	15.4475
81.56	14.8768
81.78	31.3662
82	16.5941
82.22	36.7781
82.44	2.00857
82.66	2.44625
82.88	19.2402
83.1	19.4657
83.32	6.19485
83.54	7.78998
83.76	5.53213
83.98	27.5566
84.2	16.4715
84.42	30.8907
84.64	23.9171
84.86	6.17328
85.08	24.9465
85.3	15.0654
85.52	18.5376
85.74	28.4795
85.96	15.3225
86.18	15.3591
86.4	34.8304
86.62	10.4466
86.84	14.6197
87.06	28.1627
87.28	8.18718
87.5	27.0886
87.72	20.2214
87.94	27.5416
88.16	17.0832
88.38	0.734032
88.6	27.6545
88.82	11.8521
89.04	12.5179
89.26	20.3874
89.48	15.2166
89.7	27.0634
89.92	2.61617
