Measurement: Powder, Xray Data XY Processed
Mineral: Hastingsite
Rruff sample: R070124
Ideal chemistry: NaCa_2_(Fe^2+^_4_Fe^3+^)(Si_6_Al_2_)O_22_(OH)_2_
Locality: Clea Claims, Pelly River area, Yukon Territory, Canada
Source: Mark Mauthner
Description: Loose black bladed crystals
Diffraction sample description: Powder
Measured chemistry: ([box]_0.48_Na_0.28_K_0.24_)_Σ=1_(Ca_1.85_Na_0.15_)_Σ=2_((Fe^2+^_3.06_Mg_0.68_Mn_0.04_Ti_0.07_)_Σ=3.97_(Fe^3+^_0.63_Al_0.40_)_Σ=1.03_)_Σ=5_(Si_6.46_Al_1.54_)O_22_((OH)_1.75_F_0.21_Cl_0.04_)_Σ=2_; (OH) estimated by difference
Cell parameters: a: 9.9238(5) b: 18.1873(9) c: 5.3301(6) alpha: 90 beta: 104.980(6) gamma: 90 volume: 929.32(9) crystal system: monoclinic
x	intensity
5	0
5.22	4.28538
5.44	17.9175
5.66	10.4228
5.88	22.9386
6.1	25.4013
6.32	38.2036
6.54	31.119
6.76	36.0763
6.98	6.43126
7.2	17.1186
7.42	9.85971
7.64	23.8033
7.86	10.7907
8.08	13.1687
8.3	13.2496
8.52	36.3209
8.74	19.2495
8.96	31.3853
9.18	1.06151
9.4	41.5381
9.62	31.8068
9.84	20.1911
10.06	19.317
10.28	81.0216
10.5	234.794
10.72	24.5288
10.94	28.5323
11.16	11.1075
11.38	16.9671
11.6	3.8923
11.82	5.50298
12.04	38.4473
12.26	43.452
12.48	127.945
12.7	20.9833
12.92	27.2661
13.14	28.1031
13.36	23.3979
13.58	1.29967
13.8	36.9242
14.02	11.4309
14.24	8.89996
14.46	25.8547
14.68	6.26601
14.9	18.9095
15.12	29.8493
15.34	21.3734
15.56	1.67226
15.78	30.7256
16	12.3382
16.22	22.812
16.44	10.4702
16.66	33.4616
16.88	5.15922
17.1	23.8833
17.32	20.6794
17.54	25.7256
17.76	5.34399
17.98	25.8423
18.2	36.5896
18.42	0.086716
18.64	21.5084
18.86	14.4487
19.08	26.6011
19.3	15.2971
19.52	57.3493
19.74	34.3961
19.96	9.30499
20.18	8.5295
20.4	26.8111
20.62	18.6687
20.84	32.5754
21.06	6.03435
21.28	18.2117
21.5	11.9908
21.72	33.475
21.94	25.4744
22.16	19.9271
22.38	44.6573
22.6	28.7059
22.82	44.1645
23.04	28.9126
23.26	12.6631
23.48	41.3462
23.7	12.1928
23.92	16.2553
24.14	18.1827
24.36	25.1505
24.58	29.0727
24.8	14.6415
25.02	17.6605
25.24	56.4718
25.46	17.5917
25.68	23.1753
25.9	25.4945
26.12	65.024
26.34	29.6336
26.56	8.30631
26.78	11.968
27	85.3397
27.22	19.3098
27.44	3.30292
27.66	42.7963
27.88	23.3376
28.1	39.0927
28.32	175.151
28.54	49.2014
28.76	19.0257
28.98	16.0846
29.2	11.3366
29.42	44.8842
29.64	6.09018
29.86	24.7174
30.08	16.724
30.3	64.5129
30.52	40.7319
30.74	7.85496
30.96	2.28428
31.18	25.8212
31.4	28.1101
31.62	53.3809
31.84	5.36334
32.06	18.6277
32.28	8.43603
32.5	54.913
32.72	19.9454
32.94	95.4039
33.16	15.0971
33.38	6.96059
33.6	9.31528
33.82	5.42247
34.04	7.26602
34.26	44.5847
34.48	25.9014
34.7	15.9561
34.92	3.34124
35.14	59.2802
35.36	24.9942
35.58	0.272713
35.8	22.2451
36.02	15.0636
36.24	11.654
36.46	23.7748
36.68	23.8275
36.9	18.7488
37.12	23.9764
37.34	37.8135
37.56	48.0539
37.78	20.9086
38	25.1916
38.22	51.7849
38.44	30.7285
38.66	13.5412
38.88	24.8412
39.1	33.8794
39.32	13.7065
39.54	15.5427
39.76	0.294571
39.98	8.30124
40.2	17.2093
40.42	42.5019
40.64	23.307
40.86	14.8409
41.08	48.5787
41.3	21.4522
41.52	59.1493
41.74	37.9265
41.96	24.8635
42.18	15.1473
42.4	1.9764
42.62	22.4905
42.84	5.66541
43.06	21.9925
43.28	7.3362
43.5	0.650169
43.72	17.654
43.94	19.7403
44.16	14.6367
44.38	32.631
44.6	103.298
44.82	14.3562
45.04	22.6733
45.26	35.0081
45.48	30.5656
45.7	2.77142
45.92	30.5672
46.14	22.7509
46.36	39.2262
46.58	10.2282
46.8	29.1739
47.02	24.9396
47.24	11.1783
47.46	4.23413
47.68	30.8872
47.9	15.9515
48.12	25.9426
48.34	0.746788
48.56	2.65453
48.78	15.5112
49	28.7565
49.22	1.97604
49.44	6.63429
49.66	12.1359
49.88	33.8569
50.1	42.6944
50.32	18.3761
50.54	22.8461
50.76	25.2764
50.98	32.3515
51.2	13.3386
51.42	7.36923
51.64	0.678612
51.86	7.30271
52.08	32.1104
52.3	2.14353
52.52	22.037
52.74	13.7218
52.96	28.9052
53.18	9.79115
53.4	28.5167
53.62	0.519493
53.84	6.51372
54.06	22.2949
54.28	15.4019
54.5	3.22228
54.72	0.611931
54.94	29.6772
55.16	3.28565
55.38	23.603
55.6	24.6247
55.82	20.9589
56.04	3.3168
56.26	37.4242
56.48	17.9343
56.7	27.5224
56.92	15.0909
57.14	22.4598
57.36	1.49636
57.58	19.1705
57.8	64.3397
58.02	17.0843
58.24	40.7494
58.46	25.2963
58.68	19.0757
58.9	9.58479
59.12	25.4477
59.34	11.7056
59.56	30.4099
59.78	23.8936
60	19.1235
60.22	23.8173
60.44	18.9389
60.66	18.1938
60.88	16.294
61.1	27.7005
61.32	20.9655
61.54	20.9821
61.76	10.5162
61.98	11.9816
62.2	34.579
62.42	2.07945
62.64	32.7825
62.86	15.6239
63.08	12.5423
63.3	21.9223
63.52	34.3033
63.74	18.8899
63.96	1.10203
64.18	74.5022
64.4	43.7436
64.62	16.6551
64.84	15.6714
65.06	23.5507
65.28	18.5701
65.5	20.4156
65.72	18.386
65.94	6.56123
66.16	18.3177
66.38	20.9276
66.6	3.10748
66.82	22.4359
67.04	23.933
67.26	15.6107
67.48	24.486
67.7	23.1871
67.92	19.5191
68.14	41.9822
68.36	29.3333
68.58	18.513
68.8	21.6911
69.02	21.6609
69.24	15.7088
69.46	28.5433
69.68	18.6719
69.9	0.19397
70.12	22.8838
70.34	25.6096
70.56	28.5702
70.78	8.42215
71	17.5368
71.22	19.9962
71.44	21.265
71.66	15.4251
71.88	8.91934
72.1	27.6901
72.32	13.3697
72.54	30.7368
72.76	32.0898
72.98	16.5856
73.2	1.70976
73.42	33.2091
73.64	24.1821
73.86	26.4724
74.08	19.7538
74.3	9.16663
74.52	6.00053
74.74	31.7664
74.96	13.8857
75.18	31.4366
75.4	24.9324
75.62	24.9298
75.84	8.82494
76.06	14.9188
76.28	18.1722
76.5	16.2014
76.72	26.8629
76.94	19.1702
77.16	23.0731
77.38	41.6796
77.6	40.1762
77.82	0.131073
78.04	1.29023
78.26	28.2482
78.48	4.08091
78.7	23.3642
78.92	22.2822
79.14	26.8598
79.36	19.2163
79.58	25.9835
79.8	18.4965
80.02	31.1699
80.24	17.8909
80.46	16.1675
80.68	0.098656
80.9	9.18111
81.12	28.237
81.34	16.1405
81.56	10.7828
81.78	23.5045
82	22.4523
82.22	21.9301
82.44	20.1302
82.66	20.7967
82.88	3.43211
83.1	17.9609
83.32	18.5302
83.54	26.0266
83.76	16.3973
83.98	6.21397
84.2	18.2375
84.42	30.3927
84.64	15.8425
84.86	22.2204
85.08	9.82597
85.3	5.65688
85.52	13.358
85.74	30.3632
85.96	14.0221
86.18	31.8094
86.4	25.1687
86.62	15.6007
86.84	25.5482
87.06	35.9527
87.28	0.037872
87.5	6.26597
87.72	7.36906
87.94	16.9018
88.16	21.075
88.38	32.0531
88.6	16.4149
88.82	25.6414
89.04	21.334
89.26	12.324
89.48	15.9019
89.7	4.45537
89.92	24.5063
