Measurement: Powder, Xray Data XY Processed
Mineral: Hauerite
Rruff sample: R070506
Ideal chemistry: Mn^2+^(S_2_)^2-^
Locality: Destricella mine, Raddusa, Catania Province, Italy
Source: James Shigley
Description: Metallic brownish-gray octahedral crystal
Diffraction sample description: Powder
Measured chemistry: Mn_1.00_S_2.00_
Cell parameters: a: 6.10190(6) b: 6.10190(6) c: 6.10190(6) alpha: 90 beta: 90 gamma: 90 volume: 227.193(7) crystal system: cubic
x	intensity
5	0
5.22	10.0909
5.44	11.9922
5.66	18.5681
5.88	11.5951
6.1	27.4838
6.32	24.242
6.54	25.7522
6.76	16.0773
6.98	23.6034
7.2	8.33737
7.42	12.4409
7.64	9.49012
7.86	16.6637
8.08	13.7223
8.3	8.64442
8.52	18.6311
8.74	7.00858
8.96	8.58264
9.18	25.1047
9.4	17.3567
9.62	8.28071
9.84	9.08341
10.06	14.267
10.28	9.06773
10.5	15.0213
10.72	9.65673
10.94	6.31031
11.16	11.3589
11.38	5.87178
11.6	15.2529
11.82	4.73145
12.04	15.9359
12.26	7.07631
12.48	9.18165
12.7	7.59073
12.92	10.3909
13.14	14.4269
13.36	8.46604
13.58	8.30394
13.8	4.27582
14.02	9.24236
14.24	4.65236
14.46	7.96073
14.68	5.72252
14.9	28.1199
15.12	14.076
15.34	1.19429
15.56	13.831
15.78	20.5324
16	14.4771
16.22	15.1637
16.44	25.0545
16.66	0.90102
16.88	13.0738
17.1	14.1678
17.32	13.5852
17.54	3.02025
17.76	7.7123
17.98	11.1483
18.2	20.1724
18.42	5.07599
18.64	12.8609
18.86	26.577
19.08	18.4705
19.3	11.2302
19.52	5.55668
19.74	26.2631
19.96	18.7143
20.18	7.52297
20.4	8.74722
20.62	15.5419
20.84	1.94667
21.06	3.73927
21.28	6.49265
21.5	4.61564
21.72	14.4319
21.94	17.1845
22.16	19.6684
22.38	6.10899
22.6	4.34058
22.82	18.3474
23.04	9.77571
23.26	8.49844
23.48	5.49977
23.7	8.108
23.92	17.7241
24.14	10.4928
24.36	17.2783
24.58	3.66493
24.8	3.80014
25.02	14.3761
25.24	24.7244
25.46	15.6567
25.68	19.3977
25.9	21.0905
26.12	6.79149
26.34	11.3292
26.56	5.49462
26.78	14.0445
27	10.2811
27.22	5.76305
27.44	19.1118
27.66	4.22075
27.88	6.17272
28.1	14.539
28.32	24.4589
28.54	15.8863
28.76	15.7111
28.98	14.9662
29.2	75.2454
29.42	143.001
29.64	17.6219
29.86	0.576218
30.08	15.6709
30.3	9.16128
30.52	3.88025
30.74	13.4414
30.96	21.7337
31.18	1.19014
31.4	11.2177
31.62	16.7541
31.84	14.615
32.06	9.758
32.28	18.6623
32.5	17.7523
32.72	26.8749
32.94	112.422
33.16	16.8956
33.38	11.5925
33.6	15.1448
33.82	17.1461
34.04	4.01485
34.26	7.82227
34.48	7.23455
34.7	20.5135
34.92	4.66486
35.14	5.36951
35.36	12.1934
35.58	9.68732
35.8	1.48351
36.02	67.0208
36.24	18.7908
36.46	6.03799
36.68	12.2134
36.9	8.15618
37.12	11.1772
37.34	0.373447
37.56	9.14006
37.78	2.21418
38	19.4768
38.22	22.9879
38.44	5.78585
38.66	6.26716
38.88	15.3678
39.1	4.13359
39.32	2.45517
39.54	5.04693
39.76	16.6722
39.98	17.2517
40.2	4.00215
40.42	19.2161
40.64	21.3038
40.86	17.9345
41.08	5.78624
41.3	24.1723
41.52	20.9587
41.74	16.4409
41.96	76.2655
42.18	3.42663
42.4	12.8454
42.62	10.5263
42.84	12.519
43.06	5.13497
43.28	11.6993
43.5	11.6982
43.72	1.01278
43.94	0.108746
44.16	3.06046
44.38	6.00701
44.6	21.2278
44.82	15.6561
45.04	26.5411
45.26	13.2838
45.48	8.55349
45.7	19.2086
45.92	7.37505
46.14	11.9135
46.36	16.8333
46.58	22.5222
46.8	5.47649
47.02	11.3879
47.24	19.7135
47.46	6.75945
47.68	7.60691
47.9	22.0376
48.12	8.34705
48.34	0.396931
48.56	1.55051
48.78	22.9251
49	2.13446
49.22	15.898
49.44	53.525
49.66	191.295
49.88	14.1378
50.1	5.63
50.32	8.9694
50.54	17.3013
50.76	3.45586
50.98	3.31122
51.2	17.972
51.42	21.0185
51.64	15.9597
51.86	20.7065
52.08	32.5084
52.3	20.4965
52.52	11.5841
52.74	10.2431
52.96	14.8437
53.18	12.6812
53.4	21.4826
53.62	1.59123
53.84	7.33625
54.06	27.7708
54.28	23.5639
54.5	28.536
54.72	17.0561
54.94	33.2387
55.16	3.78111
55.38	8.17351
55.6	25.5514
55.82	12.9108
56.04	23.763
56.26	11.8728
56.48	38.1543
56.7	27.6626
56.92	16.9369
57.14	5.96117
57.36	22.0945
57.58	9.62062
57.8	0.60368
58.02	12.0671
58.24	10.491
58.46	13.4332
58.68	8.42159
58.9	3.79006
59.12	14.7434
59.34	7.16942
59.56	7.11597
59.78	16.0347
60	13.4452
60.22	12.4736
60.44	5.08851
60.66	18.8311
60.88	11.0918
61.1	8.75722
61.32	12.0795
61.54	12.8585
61.76	13.1693
61.98	14.9669
62.2	17.6636
62.42	19.0326
62.64	4.36897
62.86	11.8686
63.08	12.0823
63.3	20.1181
63.52	1.85072
63.74	21.2543
63.96	15.9735
64.18	4.07231
64.4	8.46927
64.62	7.89486
64.84	23.6425
65.06	16.5309
65.28	14.3424
65.5	15.7587
65.72	7.84031
65.94	6.75
66.16	17.5928
66.38	1.88787
66.6	0.387062
66.82	80.6167
67.04	13.5961
67.26	16.31
67.48	11.4081
67.7	6.51019
67.92	18.9357
68.14	6.68036
68.36	10.8623
68.58	11.6269
68.8	43.9124
69.02	24.4938
69.24	26.906
69.46	11.6946
69.68	14.9223
69.9	12.7833
70.12	24.5132
70.34	6.74886
70.56	3.01268
70.78	23.9021
71	12.1252
71.22	12.1532
71.44	11.5779
71.66	11.5916
71.88	16.1869
72.1	7.14275
72.32	10.7671
72.54	10.7687
72.76	10.131
72.98	1.16095
73.2	3.68549
73.42	0.381935
73.64	12.0084
73.86	8.22381
74.08	26.5766
74.3	8.85169
74.52	19.1515
74.74	11.4913
74.96	8.17747
75.18	20.8522
75.4	4.59242
75.62	13.0216
75.84	5.46795
76.06	9.73827
76.28	13.8085
76.5	27.0708
76.72	17.9791
76.94	8.16736
77.16	11.7102
77.38	8.90859
77.6	5.66965
77.82	9.82879
78.04	8.76964
78.26	37.161
78.48	13.7341
78.7	10.9438
78.92	8.12128
79.14	14.3526
79.36	6.59256
79.58	5.6373
79.8	6.67224
80.02	23.6215
80.24	32.6416
80.46	21.4691
80.68	21.4721
80.9	12.0807
81.12	14.4691
81.34	7.15448
81.56	27.5025
81.78	4.06733
82	112.487
82.22	43.629
82.44	17.99
82.66	4.01405
82.88	6.3148
83.1	3.69005
83.32	23.9917
83.54	1.37022
83.76	1.47283
83.98	10.0087
84.2	10.7692
84.42	23.4762
84.64	0.020752
84.86	11.466
85.08	21.587
85.3	18.4601
85.52	12.4376
85.74	25.186
85.96	24.7711
86.18	4.28089
86.4	3.895
86.62	27.8945
86.84	10.9145
87.06	9.05222
87.28	8.88522
87.5	19.8345
87.72	10.8952
87.94	2.98705
88.16	15.3248
88.38	3.81295
88.6	7.03477
88.82	12.6125
89.04	13.2311
89.26	13.0681
89.48	30.527
89.7	12.6456
89.92	9.80759
