Measurement: Powder, Xray Data XY Processed
Mineral: Hausmannite
Rruff sample: R060512
Ideal chemistry: Mn^2+^Mn^3+^_2_O_4_
Locality: N'Chwaning II mine, Kalahari manganese field, northern Cape Province, Republic of South Africa
Source: Michael Scott
Description: Group of black pseudo-octahedra with striations parallel to the (001) plane
Diffraction sample description: Powder
Measured chemistry: Mn^2+^_0.99_Mn^3+^_1.98_O_4_
Cell parameters: a: 5.7680(3) b: 5.7680(3) c: 9.4517(9) alpha: 90. beta: 90. gamma: 90. volume: 314.46(4) crystal system: tetragonal
x	intensity
5	0
5.22	7.9573
5.44	7.63943
5.66	5.57526
5.88	2.90238
6.1	11.1602
6.32	14.7741
6.54	9.40986
6.76	4.9012
6.98	0.301838
7.2	13.739
7.42	15.0333
7.64	7.79304
7.86	4.0683
8.08	17.7614
8.3	12.8176
8.52	7.83885
8.74	15.6416
8.96	7.44092
9.18	9.12926
9.4	3.87645
9.62	20.4125
9.84	10.6388
10.06	13.373
10.28	10.9531
10.5	28.7831
10.72	11.2519
10.94	0.669004
11.16	8.41855
11.38	5.04276
11.6	7.79504
11.82	1.3298
12.04	16.8617
12.26	18.9346
12.48	15.77
12.7	3.52916
12.92	17.4813
13.14	9.48686
13.36	6.83799
13.58	8.22172
13.8	15.3696
14.02	2.33947
14.24	10.7512
14.46	7.97457
14.68	2.70022
14.9	5.13346
15.12	5.21447
15.34	3.56752
15.56	13.4407
15.78	3.58246
16	10.6926
16.22	12.5532
16.44	12.398
16.66	5.92061
16.88	5.82037
17.1	11.1357
17.32	18.6593
17.54	15.5774
17.76	13.2342
17.98	6.25019
18.2	16.6106
18.42	3.84064
18.64	9.82979
18.86	8.85993
19.08	7.52373
19.3	6.25199
19.52	6.76593
19.74	6.60183
19.96	19.2335
20.18	15.1448
20.4	2.78289
20.62	5.71191
20.84	4.01331
21.06	10.8199
21.28	5.70746
21.5	5.86555
21.72	22.1822
21.94	9.18676
22.16	4.98621
22.38	11.9234
22.6	9.76363
22.82	8.78602
23.04	7.744
23.26	8.39046
23.48	9.43018
23.7	9.07755
23.92	2.31194
24.14	13.2309
24.36	8.83637
24.58	10.7362
24.8	4.62589
25.02	15.5507
25.24	10.5136
25.46	16.2901
25.68	6.14749
25.9	7.84276
26.12	17.6076
26.34	5.61214
26.56	4.49341
26.78	0.162027
27	10.8985
27.22	7.83009
27.44	10.6756
27.66	21.3294
27.88	5.11688
28.1	0.618793
28.32	5.54763
28.54	3.63913
28.76	8.4565
28.98	11.4335
29.2	4.68467
29.42	7.07766
29.64	20.9381
29.86	17.9053
30.08	6.80508
30.3	5.31324
30.52	10.4677
30.74	0.53474
30.96	11.3388
31.18	13.4319
31.4	18.111
31.62	15.2967
31.84	14.3078
32.06	19.1972
32.28	11.0128
32.5	40.9733
32.72	16.3491
32.94	3.36159
33.16	7.96969
33.38	2.98659
33.6	5.70609
33.82	6.5614
34.04	5.60635
34.26	15.8896
34.48	5.7544
34.7	3.82114
34.92	2.26581
35.14	12.0662
35.36	12.4521
35.58	13.1326
35.8	6.72111
36.02	6.23643
36.24	38.9568
36.46	15.3265
36.68	9.65472
36.9	4.19141
37.12	4.79517
37.34	13.9063
37.56	2.80717
37.78	20.4878
38	15.399
38.22	17.3508
38.44	6.08369
38.66	25.5706
38.88	0.643661
39.1	8.81718
39.32	10.368
39.54	12.6569
39.76	4.42793
39.98	13.914
40.2	4.21344
40.42	0.109798
40.64	8.35763
40.86	10.7234
41.08	24.1991
41.3	0.004173
41.52	20.7098
41.74	8.24402
41.96	9.43005
42.18	8.83469
42.4	21.3271
42.62	15.7395
42.84	12.7684
43.06	6.52893
43.28	27.0543
43.5	22.8666
43.72	21.524
43.94	4.28069
44.16	14.0967
44.38	2.36253
44.6	24.8947
44.82	9.2621
45.04	10.4935
45.26	11.0262
45.48	1.79602
45.7	18.5915
45.92	12.3699
46.14	9.99092
46.36	16.8227
46.58	8.62279
46.8	7.77869
47.02	17.1173
47.24	15.6784
47.46	5.21191
47.68	7.87191
47.9	12.1545
48.12	9.49983
48.34	11.576
48.56	17.5464
48.78	12.9804
49	19.195
49.22	10.708
49.44	7.36828
49.66	2.49759
49.88	23.1975
50.1	16.7661
50.32	10.1461
50.54	9.32801
50.76	17.214
50.98	34.5319
51.2	29.7579
51.42	7.35143
51.64	11.3143
51.86	11.2834
52.08	12.8749
52.3	11.7676
52.52	13.0444
52.74	10.7697
52.96	17.8505
53.18	3.3045
53.4	5.11138
53.62	21.0068
53.84	11.4779
54.06	16.7491
54.28	6.61328
54.5	6.6857
54.72	2.4105
54.94	2.9456
55.16	28.1301
55.38	2.10059
55.6	17.7184
55.82	17.8851
56.04	20.9475
56.26	12.4569
56.48	0.060055
56.7	1.94222
56.92	11.5456
57.14	11.7457
57.36	10.117
57.58	11.6143
57.8	2.64135
58.02	12.7406
58.24	2.52647
58.46	26.2452
58.68	38.2884
58.9	12.8427
59.12	6.43207
59.34	5.14546
59.56	3.37563
59.78	17.0045
60	25.3836
60.22	16.1845
60.44	11.08
60.66	27.3232
60.88	16.2554
61.1	17.6175
61.32	16.9446
61.54	18.0915
61.76	10.9577
61.98	19.6817
62.2	12.368
62.42	18.8864
62.64	22.7189
62.86	23.819
63.08	2.58374
63.3	11.9894
63.52	2.3438
63.74	26.047
63.96	12.8085
64.18	12.5639
64.4	29.5761
64.62	9.8494
64.84	26.6669
65.06	7.05669
65.28	16.8839
65.5	14.0368
65.72	18.9587
65.94	5.88017
66.16	15.7927
66.38	11.0176
66.6	8.87989
66.82	5.91097
67.04	9.55841
67.26	17.6724
67.48	12.4221
67.7	13.9949
67.92	4.91419
68.14	15.9272
68.36	4.48273
68.58	5.48218
68.8	14.2475
69.02	11.4242
69.24	21.4384
69.46	7.75859
69.68	8.65165
69.9	7.59019
70.12	2.29401
70.34	12.1315
70.56	8.04147
70.78	13.5975
71	11.4393
71.22	12.6474
71.44	20.5877
71.66	13.9229
71.88	23.3676
72.1	26.1838
72.32	11.495
72.54	26.978
72.76	15.0864
72.98	22.329
73.2	11.8205
73.42	2.58159
73.64	12.2157
73.86	27.1301
74.08	9.68285
74.3	31.9711
74.52	13.8273
74.74	19.3876
74.96	15.801
75.18	4.00889
75.4	13.6167
75.62	9.48125
75.84	25.9933
76.06	21.7601
76.28	15.6437
76.5	20.6397
76.72	3.71638
76.94	9.13655
77.16	16.0974
77.38	27.1979
77.6	10.8198
77.82	5.49164
78.04	22.2591
78.26	12.9573
78.48	12.9046
78.7	9.5228
78.92	0.900574
79.14	26.2764
79.36	14.7676
79.58	4.44159
79.8	10.2837
80.02	25.0167
80.24	21.9279
80.46	19.8291
80.68	8.40429
80.9	16.2305
81.12	2.35142
81.34	14.8741
81.56	19.8688
81.78	18.6487
82	19.8463
82.22	13.9455
82.44	1.92701
82.66	17.2904
82.88	9.74992
83.1	18.6839
83.32	11.029
83.54	17.3574
83.76	29.0678
83.98	5.96825
84.2	22.9896
84.42	20.7168
84.64	5.43724
84.86	15.5131
85.08	13.2079
85.3	27.6609
85.52	14.1311
85.74	11.7417
85.96	28.4374
86.18	11.8011
86.4	30.0163
86.62	1.87164
86.84	1.15882
87.06	16.0725
87.28	21.9077
87.5	19.4537
87.72	5.46042
87.94	5.3224
88.16	3.04401
88.38	14.9586
88.6	4.74849
88.82	3.0194
89.04	5.18222
89.26	14.4595
89.48	6.42138
89.7	12.4651
89.92	14.7787
