Measurement: Powder, Xray Data XY Processed
Mineral: Hausmannite
Rruff sample: R040090
Ideal chemistry: Mn^2+^Mn^3+^_2_O_4_
Locality: Ã–hrenstock, Ilmenau, near Thuringia, Germany
Source: University of Arizona Mineral Museum
Description: Mass of black octahedral crystals
Diffraction sample description: Powder
Measured chemistry: (Mn^2+^_0.71_Zn_0.28_)Mn^3+^_2.00_O_4_
Cell parameters: a: 5.7518(2) b: 5.7518(2) c: 9.4076(8) alpha: 90. beta: 90. gamma: 90. volume: 311.24(3) crystal system: tetragonal
x	intensity
5	0
5.22	14.492
5.44	10.147
5.66	20.33
5.88	15.064
6.1	19.633
6.32	27.961
6.54	17.983
6.76	20.592
6.98	23.75
7.2	12.034
7.42	12.092
7.64	14.338
7.86	15.5
8.08	0.116
8.3	10.134
8.52	8.685
8.74	18.937
8.96	8.2
9.18	14.777
9.4	5.807
9.62	19.217
9.84	6.801
10.06	9.82
10.28	3.556
10.5	18.324
10.72	15.372
10.94	14.077
11.16	20.554
11.38	20.938
11.6	9.321
11.82	5.114
12.04	11.125
12.26	0.433
12.48	8.509
12.7	40.773
12.92	14.266
13.14	29.024
13.36	10.404
13.58	13.478
13.8	5.019
14.02	4.92
14.24	32.991
14.46	18.74
14.68	10.857
14.9	22.186
15.12	24.585
15.34	19.894
15.56	18.849
15.78	24.023
16	1.668
16.22	24.623
16.44	18.406
16.66	14.751
16.88	9.334
17.1	1.813
17.32	16.016
17.54	9.815
17.76	11.456
17.98	49.965
18.2	32.698
18.42	14.005
18.64	8.289
18.86	0.76
19.08	38.617
19.3	12.794
19.52	1.129
19.74	7.61
19.96	2.599
20.18	23.476
20.4	38.843
20.62	14.213
20.84	12.705
21.06	10.091
21.28	17.124
21.5	28.784
21.72	14.687
21.94	28.025
22.16	14.593
22.38	0.14
22.6	17.129
22.82	0.643
23.04	28.414
23.26	21.622
23.48	14.134
23.7	10.26
23.92	16.422
24.14	24.209
24.36	1.929
24.58	30.212
24.8	16.707
25.02	12.149
25.24	25.391
25.46	3.732
25.68	30.162
25.9	15.696
26.12	24.329
26.34	29.712
26.56	23.22
26.78	8.536
27	10.885
27.22	27.497
27.44	18.599
27.66	0.898
27.88	11.799
28.1	6.47
28.32	5.776
28.54	11.812
28.76	29.658
28.98	52.532
29.2	35.259
29.42	18.98
29.64	20.011
29.86	25.193
30.08	9.991
30.3	11
30.52	36.58
30.74	1.391
30.96	15.516
31.18	67.988
31.4	12.391
31.62	27.204
31.84	20.646
32.06	22.935
32.28	1.515
32.5	162.595
32.72	52.637
32.94	40.781
33.16	27.623
33.38	17.621
33.6	3.318
33.82	13.05
34.04	5.243
34.26	10.224
34.48	8.839
34.7	11.53
34.92	21.762
35.14	7.976
35.36	7.94
35.58	10.619
35.8	3.952
36.02	45.887
36.24	223.958
36.46	42.563
36.68	45.236
36.9	15.898
37.12	23.267
37.34	11.737
37.56	23.615
37.78	1.511
38	3.54
38.22	54.377
38.44	17.262
38.66	23.114
38.88	15.066
39.1	26.501
39.32	21.529
39.54	21.748
39.76	15.438
39.98	36.344
40.2	22.353
40.42	29.461
40.64	2.484
40.86	20.505
41.08	22.319
41.3	22.221
41.52	9.675
41.74	6.168
41.96	14.789
42.18	21.717
42.4	38.794
42.62	20.675
42.84	10.953
43.06	23.966
43.28	27.591
43.5	12.125
43.72	9.217
43.94	25.151
44.16	15.631
44.38	32.919
44.6	61.078
44.82	25.245
45.04	19.395
45.26	18.062
45.48	7.005
45.7	20.522
45.92	8.605
46.14	40.702
46.36	39.94
46.58	33.642
46.8	14.149
47.02	16.005
47.24	33.918
47.46	3.806
47.68	33.301
47.9	11.098
48.12	5.919
48.34	7.694
48.56	16.797
48.78	18.069
49	8.611
49.22	6.488
49.44	5.888
49.66	18.529
49.88	13.2
50.1	10.423
50.32	15.912
50.54	17.306
50.76	13.688
50.98	31.158
51.2	29.444
51.42	1.49
51.64	25.576
51.86	26.264
52.08	27.33
52.3	11.957
52.52	0.409
52.74	31.408
52.96	22.5
53.18	40.923
53.4	14.455
53.62	41.326
53.84	27.939
54.06	46.201
54.28	22.618
54.5	2.337
54.72	14.866
54.94	6.259
55.16	3.799
55.38	25.521
55.6	6.79
55.82	42.579
56.04	4.262
56.26	26.68
56.48	24.599
56.7	15.525
56.92	26.605
57.14	20.604
57.36	18.632
57.58	0.734
57.8	28.744
58.02	12.209
58.24	21.157
58.46	17.638
58.68	41.505
58.9	48.716
59.12	16.457
59.34	27.209
59.56	4.249
59.78	16.567
60	19.432
60.22	55.924
60.44	37.083
60.66	9.466
60.88	2.383
61.1	22.156
61.32	28.676
61.54	20.514
61.76	2.51
61.98	2.224
62.2	24.655
62.42	1.981
62.64	7.207
62.86	33.25
63.08	16.849
63.3	15.973
63.52	20.369
63.74	29.658
63.96	0.032
64.18	29.2
64.4	18.629
64.62	13.792
64.84	43.542
65.06	38.368
65.28	10.55
65.5	10.384
65.72	25.055
65.94	18.315
66.16	16.063
66.38	21.897
66.6	17.663
66.82	33.557
67.04	8.962
67.26	11.175
67.48	31.085
67.7	22.699
67.92	18.688
68.14	24.651
68.36	25.21
68.58	4.539
68.8	8.367
69.02	3.268
69.24	2.139
69.46	30.625
69.68	6.861
69.9	13.042
70.12	22.177
70.34	2.331
70.56	17.352
70.78	26.411
71	8.774
71.22	31.472
71.44	9.092
71.66	24.889
71.88	13.374
72.1	20.306
72.32	13.794
72.54	23.168
72.76	27.531
72.98	15.49
73.2	16.403
73.42	21.868
73.64	17.727
73.86	12.871
74.08	14.82
74.3	21.423
74.52	7.181
74.74	20.623
74.96	6.118
75.18	13.265
75.4	4.121
75.62	10.861
75.84	16.72
76.06	15.083
76.28	27.262
76.5	16.268
76.72	43.52
76.94	11.295
77.16	24.058
77.38	18.239
77.6	6.119
77.82	25.935
78.04	1.584
78.26	25.66
78.48	2.957
78.7	16.585
78.92	23.533
79.14	4.944
79.36	27.04
79.58	3.303
79.8	0.806
80.02	13.584
80.24	23.395
80.46	21.877
80.68	29.998
80.9	19.649
81.12	26.47
81.34	18.761
81.56	11.863
81.78	25.047
82	18.595
82.22	10.057
82.44	9.894
82.66	26.848
82.88	28.655
83.1	2.19
83.32	16.622
83.54	7.019
83.76	9.413
83.98	5.16
84.2	14.356
84.42	13.573
84.64	27.878
84.86	6.43
85.08	2.722
85.3	24.542
85.52	23.14
85.74	20.363
85.96	6.365
86.18	24.964
86.4	18.439
86.62	18.198
86.84	27.493
87.06	15.08
87.28	19.358
87.5	23.783
87.72	1.086
87.94	31.285
88.16	23.407
88.38	15.996
88.6	18.079
88.82	35.897
89.04	30.405
89.26	40.47
89.48	4.502
89.7	18.04
89.92	24.867
