Measurement: Powder, Xray Data XY Processed
Mineral: Hauyne
Rruff sample: R040023
Ideal chemistry: Na_3_Ca(Si_3_Al_3_)O_12_(S^6+^O_4_)
Locality: Cazadero river, Ovalle, Limar√≠ Province, Coquimbo, Chile
Source: University of Arizona Mineral Museum
Description: Blue fine-grained massive, associated with wollastonite and calcite
Diffraction sample description: Powder
Measured chemistry: (Na_0.99_K_0.01_)_6_(Ca_0.99_Na_0.01_)_2_Al_6.00_Si_6.00_O_24_[(SO_4_)_0.67_S_0.32_Cl_0.01_]_2_
Cell parameters: a: 9.0744(3) b: 9.0744(3) c: 9.0744(3) alpha: 90 beta: 90 gamma: 90 volume: 747.24(9) crystal system: cubic
x	intensity
5	0
5.22	0.365
5.44	4.202
5.66	12.414
5.88	3.722
6.1	13.384
6.32	22.473
6.54	24.377
6.76	9.339
6.98	16.497
7.2	10.06
7.42	11.831
7.64	4.942
7.86	1.56
8.08	8.868
8.3	2.66
8.52	2.169
8.74	5.368
8.96	8.983
9.18	7.67
9.4	12.577
9.62	7.914
9.84	16.969
10.06	3.826
10.28	6.964
10.5	6.122
10.72	11.167
10.94	2.596
11.16	2.963
11.38	14.234
11.6	46.034
11.82	10.249
12.04	4.383
12.26	5.368
12.48	7.343
12.7	8.263
12.92	0.18
13.14	4.966
13.36	8.855
13.58	4.729
13.8	70.578
14.02	31.405
14.24	5.423
14.46	3.7
14.68	4.94
14.9	20.174
15.12	3.411
15.34	2.702
15.56	5.26
15.78	8.569
16	4.723
16.22	6.266
16.44	3.618
16.66	11.637
16.88	3.839
17.1	14.411
17.32	2.448
17.54	12.423
17.76	7.473
17.98	5.943
18.2	5.879
18.42	5.694
18.64	4.882
18.86	11.438
19.08	14.075
19.3	6.738
19.52	9.9
19.74	10.573
19.96	13.54
20.18	8.239
20.4	1.599
20.62	2.105
20.84	11.081
21.06	4.214
21.28	2.186
21.5	6.366
21.72	2.971
21.94	17.785
22.16	8.556
22.38	11.258
22.6	16.072
22.82	8.337
23.04	17.836
23.26	75.462
23.48	8.056
23.7	0.093
23.92	29.653
24.14	61.729
24.36	16.67
24.58	5.862
24.8	8.711
25.02	5.595
25.24	24.282
25.46	51.574
25.68	13.312
25.9	39.88
26.12	6.789
26.34	5.375
26.56	1.613
26.78	21.179
27	48.435
27.22	6.064
27.44	3.711
27.66	9.825
27.88	1.457
28.1	18.572
28.32	0.766
28.54	4.02
28.76	19.679
28.98	100.034
29.2	14.061
29.42	172.182
29.64	28.653
29.86	47.605
30.08	207.032
30.3	13.686
30.52	27.948
30.74	1.415
30.96	13.695
31.18	62.743
31.4	10.01
31.62	4.733
31.84	8.443
32.06	7.292
32.28	16.114
32.5	11.279
32.72	0.771
32.94	27.405
33.16	15.138
33.38	6.055
33.6	1.416
33.82	60.534
34.04	2.804
34.26	94.156
34.48	15.238
34.7	8.527
34.92	5.158
35.14	25.32
35.36	0.116
35.58	22.928
35.8	1.597
36.02	32.73
36.24	48.844
36.46	10.799
36.68	2.859
36.9	2.134
37.12	24.958
37.34	3.851
37.56	6.69
37.78	2.452
38	5.234
38.22	19.71
38.44	17.463
38.66	25.23
38.88	2.623
39.1	85.904
39.32	18.947
39.54	32.5
39.76	18.593
39.98	2.737
40.2	1.908
40.42	1.963
40.64	4.132
40.86	10.765
41.08	8.79
41.3	60.31
41.52	13.158
41.74	22.303
41.96	3.246
42.18	8.745
42.4	30.846
42.62	14.913
42.84	10.195
43.06	8.345
43.28	15.22
43.5	12.812
43.72	10.063
43.94	8.083
44.16	8.592
44.38	10.919
44.6	10.157
44.82	28.172
45.04	10.566
45.26	3.397
45.48	3.004
45.7	10.722
45.92	5.299
46.14	2.868
46.36	10.189
46.58	5.045
46.8	16.227
47.02	17.615
47.24	20.842
47.46	28.962
47.68	17.173
47.9	7.236
48.12	2.556
48.34	27.95
48.56	31.888
48.78	0.957
49	5.288
49.22	19.805
49.44	1.493
49.66	11.928
49.88	26.598
50.1	8.273
50.32	5.706
50.54	10.412
50.76	24.309
50.98	9.636
51.2	1.947
51.42	6.979
51.64	3.468
51.86	12.201
52.08	24.417
52.3	12.26
52.52	0.505
52.74	2.098
52.96	7.097
53.18	20.546
53.4	19.201
53.62	13.582
53.84	3.799
54.06	11.195
54.28	1.495
54.5	7.749
54.72	0.03
54.94	12.068
55.16	4.751
55.38	11.833
55.6	0.443
55.82	7.156
56.04	5.998
56.26	0.309
56.48	5.152
56.7	4.142
56.92	1.894
57.14	15.87
57.36	24.981
57.58	29.059
57.8	1.675
58.02	0.606
58.24	19.814
58.46	11.879
58.68	4.972
58.9	9.515
59.12	1.306
59.34	12.178
59.56	6.123
59.78	3.972
60	4.837
60.22	15.173
60.44	13.278
60.66	14.33
60.88	12.328
61.1	10.399
61.32	11.047
61.54	2.977
61.76	7.82
61.98	3.663
62.2	9.462
62.42	8.415
62.64	10.293
62.86	17.733
63.08	25.448
63.3	9.757
63.52	4.559
63.74	17.692
63.96	19.05
64.18	9.601
64.4	2.108
64.62	17.732
64.84	10.079
65.06	3.783
65.28	7.459
65.5	3.853
65.72	11.832
65.94	0.139
66.16	0.449
66.38	8.704
66.6	4.516
66.82	3.72
67.04	1.791
67.26	5.729
67.48	1.415
67.7	6.085
67.92	1.225
68.14	6.755
68.36	9.896
68.58	15.842
68.8	13.661
69.02	9.783
69.24	8.289
69.46	2.379
69.68	0.56
69.9	4.809
70.12	3.91
70.34	5.543
70.56	3.775
70.78	2.722
71	4.748
71.22	8.691
71.44	2.214
71.66	0.92
71.88	4.699
72.1	10.724
72.32	9.515
72.54	1.406
72.76	6.761
72.98	6.397
73.2	4.199
73.42	4.345
73.64	1.617
73.86	6.591
74.08	6.519
74.3	7.767
74.52	8.159
74.74	1.328
74.96	1.515
75.18	11.093
75.4	12.314
75.62	9.705
75.84	4.672
76.06	0.535
76.28	2.66
76.5	4.936
76.72	8.013
76.94	7.911
77.16	13.92
77.38	11.894
77.6	11.7
77.82	1.234
78.04	5.804
78.26	5.117
78.48	4.32
78.7	9.601
78.92	10.472
79.14	6.627
79.36	3.766
79.58	3.74
79.8	6.867
80.02	5.769
80.24	1.546
80.46	7.171
80.68	14.755
80.9	2.399
81.12	2.05
81.34	12.901
81.56	8.781
81.78	7.641
82	9.462
82.22	10.694
82.44	13.078
82.66	0.414
82.88	0.56
83.1	1.695
83.32	0.869
83.54	0.008
83.76	5.059
83.98	9.064
84.2	15.906
84.42	8.09
84.64	8.924
84.86	3.736
85.08	11.753
85.3	10.714
85.52	1.806
85.74	0.804
85.96	5.01
86.18	5.226
86.4	8.204
86.62	0.807
86.84	7.994
87.06	1.718
87.28	6.502
87.5	10.168
87.72	10.077
87.94	8.849
88.16	9.492
88.38	7.325
88.6	1.084
88.82	4.374
89.04	2.253
89.26	7.475
89.48	2.769
89.7	9.581
89.92	5.787
