Measurement: Powder, Xray Data XY Processed
Mineral: Hedenbergite
Rruff sample: R050030
Ideal chemistry: CaFe^2+^Si_2_O_6_
Locality: Heroult, Ontario, Canada
Source: University of Arizona Mineral Museum
Description: Green fragments
Diffraction sample description: Powder
Measured chemistry: (Ca_.993_Na_.007_)(Fe_.860_Mn_.111_Mg_.029_)(Si_.993_Al_.007_)_2_O_6_
Cell parameters: a: 9.8416(8) b: 9.0253(5) c: 5.2520(3) alpha: 90. beta: 104.86(1) gamma: 90. volume: 450.89(5) crystal system: monoclinic
x	intensity
5	0
5.22	10.955
5.44	1.009
5.66	10.381
5.88	14.088
6.1	11.289
6.32	11.171
6.54	11.545
6.76	12.257
6.98	10.842
7.2	8.942
7.42	24.411
7.64	9.594
7.86	15.057
8.08	18.602
8.3	9.027
8.52	16.328
8.74	23.015
8.96	19.087
9.18	10.508
9.4	27.55
9.62	12.623
9.84	20.761
10.06	13.666
10.28	4.939
10.5	31.84
10.72	4.827
10.94	9.77
11.16	17.531
11.38	6.134
11.6	10.586
11.82	6.872
12.04	2.509
12.26	20.997
12.48	25.003
12.7	4.369
12.92	17.262
13.14	15.337
13.36	22.118
13.58	146.116
13.8	4.417
14.02	7.801
14.24	26.921
14.46	3.391
14.68	16.377
14.9	2.413
15.12	8.538
15.34	26.736
15.56	5.969
15.78	25.037
16	33.086
16.22	8.71
16.44	5.578
16.66	11.107
16.88	12.261
17.1	24.016
17.32	1.859
17.54	19.723
17.76	27.501
17.98	1.823
18.2	11.47
18.42	26.386
18.64	91.199
18.86	10.333
19.08	2.623
19.3	39.937
19.52	0.98
19.74	13.265
19.96	18.631
20.18	25.746
20.4	29.322
20.62	0.741
20.84	11.865
21.06	1.854
21.28	13.995
21.5	33.323
21.72	5.025
21.94	14.13
22.16	17.481
22.38	0.316
22.6	20.631
22.82	8.988
23.04	6.368
23.26	9.378
23.48	15.572
23.7	14.728
23.92	14.526
24.14	22.172
24.36	11.48
24.58	28.351
24.8	43.908
25.02	22.172
25.24	8.486
25.46	3.452
25.68	10.845
25.9	23.892
26.12	1.11
26.34	22.403
26.56	14.247
26.78	24.771
27	10.758
27.22	84.611
27.44	25.963
27.66	18.345
27.88	11.733
28.1	16.099
28.32	21.666
28.54	9.181
28.76	24.322
28.98	18.4
29.2	18.88
29.42	34.091
29.64	80.688
29.86	380.638
30.08	46.989
30.3	37.815
30.52	18.186
30.74	30.434
30.96	13.14
31.18	4.266
31.4	2.934
31.62	13.637
31.84	10.965
32.06	22.139
32.28	2.946
32.5	11.07
32.72	15.932
32.94	0.851
33.16	15.529
33.38	7.291
33.6	2.658
33.82	20.531
34.04	9.225
34.26	8.123
34.48	12.159
34.7	79.672
34.92	37.976
35.14	109.863
35.36	60.121
35.58	24.711
35.8	18.631
36.02	9.545
36.24	2.261
36.46	10.346
36.68	20.154
36.9	6.651
37.12	17.986
37.34	10.162
37.56	2.212
37.78	18.53
38	24.517
38.22	10.731
38.44	23.917
38.66	19.23
38.88	26.416
39.1	13.998
39.32	14.676
39.54	19.282
39.76	5.221
39.98	14.974
40.2	19.039
40.42	10.287
40.64	16.197
40.86	17.834
41.08	11.336
41.3	0.755
41.52	21.529
41.74	7.459
41.96	39.306
42.18	28.379
42.4	31.494
42.62	77.94
42.84	20.811
43.06	8.244
43.28	21.161
43.5	21.953
43.72	9.618
43.94	11.546
44.16	11.237
44.38	10.087
44.6	23.781
44.82	7.193
45.04	15.319
45.26	16.455
45.48	8.211
45.7	5.605
45.92	7.227
46.14	8.073
46.36	6.213
46.58	10.108
46.8	23.138
47.02	17.478
47.24	8.295
47.46	17.672
47.68	2.591
47.9	7.315
48.12	17.257
48.34	13.06
48.56	19.364
48.78	20.323
49	34.67
49.22	13.67
49.44	14.603
49.66	4.595
49.88	14.089
50.1	18.836
50.32	17.805
50.54	24.907
50.76	8.971
50.98	22.857
51.2	14.319
51.42	34.371
51.64	29.152
51.86	21.861
52.08	28.941
52.3	17.162
52.52	6.808
52.74	17.178
52.96	2.655
53.18	9.383
53.4	0.585
53.62	8.596
53.84	12.436
54.06	10.412
54.28	9.814
54.5	7.212
54.72	32.323
54.94	8.976
55.16	17.319
55.38	22.863
55.6	10.607
55.82	20.167
56.04	29.38
56.26	54.887
56.48	18.097
56.7	25.044
56.92	4.007
57.14	14.131
57.36	34.824
57.58	9.365
57.8	10.953
58.02	24.866
58.24	27.42
58.46	11.534
58.68	11.846
58.9	0.41
59.12	19.205
59.34	8.041
59.56	5.985
59.78	7.641
60	10.25
60.22	22.885
60.44	7.074
60.66	13.152
60.88	25.203
61.1	7.446
61.32	36.617
61.54	18.97
61.76	12.535
61.98	1.941
62.2	13.871
62.42	12.9
62.64	25.673
62.86	2.25
63.08	12.617
63.3	4.879
63.52	11.912
63.74	18.865
63.96	18.771
64.18	6.128
64.4	46.467
64.62	29.519
64.84	8.632
65.06	3.401
65.28	5.267
65.5	4.514
65.72	1.403
65.94	4.211
66.16	31.743
66.38	11.608
66.6	15.079
66.82	8.082
67.04	21.142
67.26	5.508
67.48	13.043
67.7	19.62
67.92	3.917
68.14	11.003
68.36	2.441
68.58	1.814
68.8	6.882
69.02	13.871
69.24	10.218
69.46	25.301
69.68	16.389
69.9	20.842
70.12	2.676
70.34	32.734
70.56	12.921
70.78	6.099
71	6.866
71.22	11.41
71.44	13.05
71.66	18.354
71.88	10.374
72.1	2.83
72.32	0.984
72.54	7.286
72.76	25.556
72.98	11.524
73.2	15.203
73.42	6.489
73.64	5.038
73.86	12.231
74.08	8.024
74.3	30.091
74.52	8.672
74.74	5.413
74.96	7.566
75.18	3.408
75.4	9.852
75.62	1.058
75.84	24.343
76.06	2.344
76.28	30.09
76.5	9.361
76.72	25.312
76.94	15.825
77.16	9.331
77.38	5.973
77.6	2.328
77.82	2.384
78.04	3.909
78.26	25.929
78.48	29.95
78.7	9.918
78.92	14.903
79.14	16.809
79.36	19.885
79.58	7.79
79.8	16.669
80.02	8.859
80.24	32.591
80.46	24.671
80.68	12.21
80.9	20.178
81.12	11.081
81.34	20.133
81.56	25.034
81.78	19.892
82	11.929
82.22	13.979
82.44	9.525
82.66	11.601
82.88	10.082
83.1	4.981
83.32	15.533
83.54	4.7
83.76	26.618
83.98	12.726
84.2	10.777
84.42	27.808
84.64	5.319
84.86	1.651
85.08	10.857
85.3	0.778
85.52	10.442
85.74	14.931
85.96	20.129
86.18	4.192
86.4	13.88
86.62	16.802
86.84	24.877
87.06	9.859
87.28	13.158
87.5	8.274
87.72	0.398
87.94	1.858
88.16	28.461
88.38	2.672
88.6	4.419
88.82	0.298
89.04	21.088
89.26	28.777
89.48	18.657
89.7	21.421
89.92	9.455
