Measurement: Powder, Xray Data XY Processed
Mineral: Hedenbergite
Rruff sample: R070136
Ideal chemistry: CaFe^2+^Si_2_O_6_
Locality: Vesper Peak, Snohomish County, Washington, USA
Source: Mark Mauthner
Description: Brownish green prismatic crystals with transparent sections
Diffraction sample description: Powder
Cell parameters: a: 9.8389(9) b: 9.0224(6) c: 5.2492(4) alpha: 90 beta: 104.816(8) gamma: 90 volume: 450.48(5) crystal system: monoclinic
x	intensity
5	0
5.22	1.67242
5.44	26.8721
5.66	27.0463
5.88	2.80145
6.1	13.6362
6.32	24.8729
6.54	37.2465
6.76	0.590492
6.98	30.4642
7.2	23.6039
7.42	17.4277
7.64	9.36051
7.86	29.3324
8.08	24.4446
8.3	10.2365
8.52	2.78209
8.74	10.9693
8.96	17.7247
9.18	20.6146
9.4	22.6465
9.62	0.859787
9.84	10.6069
10.06	1.98222
10.28	9.60186
10.5	32.5476
10.72	7.45647
10.94	13.6455
11.16	23.1443
11.38	19.9429
11.6	2.73618
11.82	6.89798
12.04	7.29735
12.26	6.34236
12.48	21.9915
12.7	19.4157
12.92	20
13.14	0.061569
13.36	32.1493
13.58	99.6777
13.8	19.5959
14.02	24.9672
14.24	11.7267
14.46	9.78693
14.68	22.3734
14.9	15.9489
15.12	43.6489
15.34	10.1587
15.56	0.648148
15.78	11.1182
16	24.5273
16.22	26.1652
16.44	10.852
16.66	9.4295
16.88	22.5725
17.1	2.31644
17.32	19.9065
17.54	8.06161
17.76	21.1479
17.98	31.228
18.2	10.0997
18.42	12.2033
18.64	108.067
18.86	15.3125
19.08	18.4303
19.3	5.72622
19.52	17.3783
19.74	13.5019
19.96	10.896
20.18	5.69398
20.4	14.3306
20.62	17.4076
20.84	12.2987
21.06	15.7442
21.28	1.14697
21.5	16.8425
21.72	11.1328
21.94	36.1084
22.16	20.4097
22.38	20.4067
22.6	15.7562
22.82	10.0792
23.04	11.5344
23.26	14.0623
23.48	18.9614
23.7	48.1114
23.92	14.5241
24.14	10.0537
24.36	33.5689
24.58	7.64864
24.8	5.03269
25.02	17.7267
25.24	8.71224
25.46	4.09895
25.68	5.63323
25.9	25.5523
26.12	21.1654
26.34	23.8635
26.56	27.0449
26.78	8.65347
27	18.954
27.22	93.0481
27.44	19.4761
27.66	16.2347
27.88	3.50176
28.1	10.9245
28.32	18.4322
28.54	14.8927
28.76	8.22304
28.98	22.8786
29.2	15.3913
29.42	25.0557
29.64	83.2303
29.86	509.86
30.08	24.6776
30.3	19.6498
30.52	1.65519
30.74	28.7044
30.96	37.1876
31.18	19.3806
31.4	0.774048
31.62	0.155502
31.84	18.0523
32.06	6.63309
32.28	0.894547
32.5	14.2166
32.72	18.9919
32.94	14.8564
33.16	20.4242
33.38	7.57829
33.6	16.6663
33.82	1.79755
34.04	10.8977
34.26	0.901405
34.48	40.466
34.7	94.1198
34.92	22.7847
35.14	188.09
35.36	120.279
35.58	14.4742
35.8	5.51829
36.02	17.2554
36.24	14.1576
36.46	15.8416
36.68	13.7889
36.9	27.0772
37.12	28.4615
37.34	15.4444
37.56	13.1806
37.78	33.3189
38	19.725
38.22	20.2755
38.44	37.9858
38.66	39.3935
38.88	14.3683
39.1	4.90733
39.32	13.8747
39.54	16.9221
39.76	10.3713
39.98	31.0408
40.2	6.58665
40.42	31.0715
40.64	6.84454
40.86	0.108414
41.08	19.9182
41.3	25.3935
41.52	6.35234
41.74	0.885933
41.96	38.207
42.18	66.3109
42.4	18.5221
42.62	47.44
42.84	15.3135
43.06	8.39172
43.28	17.7264
43.5	5.87556
43.72	2.12163
43.94	35.852
44.16	4.92176
44.38	7.09322
44.6	29.9543
44.82	22.7387
45.04	35.0631
45.26	4.22805
45.48	12.9038
45.7	15.2115
45.92	14.9293
46.14	5.73797
46.36	18.3459
46.58	34.2783
46.8	14.5386
47.02	19.0433
47.24	14.1885
47.46	7.55696
47.68	19.767
47.9	8.92398
48.12	26.3512
48.34	36.1893
48.56	15.0756
48.78	34.2039
49	19.9358
49.22	7.19667
49.44	17.7212
49.66	6.81493
49.88	13.7036
50.1	35.0531
50.32	25.0724
50.54	21.3163
50.76	13.7978
50.98	14.477
51.2	38.2712
51.42	34.0904
51.64	40.7388
51.86	13.9435
52.08	7.93158
52.3	3.88277
52.52	17.9215
52.74	34.6766
52.96	7.2617
53.18	27.7179
53.4	12.8445
53.62	19.193
53.84	9.20579
54.06	39.1478
54.28	15.6983
54.5	51.618
54.72	17.1328
54.94	30.5865
55.16	20.8597
55.38	22.8576
55.6	24.382
55.82	32.5492
56.04	56.8612
56.26	53.9313
56.48	25.2068
56.7	29.5518
56.92	11.2031
57.14	4.16102
57.36	8.13792
57.58	26.9576
57.8	5.32886
58.02	33.5117
58.24	15.2819
58.46	6.37107
58.68	10.0007
58.9	20.7014
59.12	5.8159
59.34	14.9295
59.56	15.7469
59.78	21.5346
60	32.9491
60.22	37.8511
60.44	23.7632
60.66	1.3057
60.88	9.0767
61.1	13.2808
61.32	17.4406
61.54	55.7591
61.76	30.6191
61.98	13.032
62.2	20.8764
62.42	17.1034
62.64	13.2097
62.86	2.09997
63.08	30.0411
63.3	32.7953
63.52	20.3425
63.74	3.20552
63.96	17.4002
64.18	22.8037
64.4	106.636
64.62	46.6194
64.84	7.40115
65.06	10.3341
65.28	7.78221
65.5	22.1857
65.72	3.47395
65.94	20.6306
66.16	25.7831
66.38	18.8125
66.6	24.4517
66.82	9.91486
67.04	11.9807
67.26	8.38491
67.48	11.8673
67.7	6.15709
67.92	20.5113
68.14	27.2405
68.36	18.7746
68.58	0.717422
68.8	1.09173
69.02	29.0768
69.24	22.0294
69.46	21.3099
69.68	37.1711
69.9	14.0539
70.12	0.304604
70.34	21.7682
70.56	41.1314
70.78	24.215
71	23.9656
71.22	13.0004
71.44	25.024
71.66	51.5508
71.88	3.5315
72.1	19.7394
72.32	44.6329
72.54	31.1009
72.76	6.15482
72.98	27.6994
73.2	0.46563
73.42	27.2532
73.64	10.7809
73.86	0.860718
74.08	15.2632
74.3	25.3042
74.52	15.3614
74.74	13.1632
74.96	5.40297
75.18	6.97825
75.4	11.7241
75.62	13.4244
75.84	14.6947
76.06	21.1264
76.28	13.9594
76.5	11.8971
76.72	8.86715
76.94	22.6215
77.16	28.8954
77.38	7.05
77.6	19.3464
77.82	17.3879
78.04	20.9978
78.26	14.9983
78.48	29.7976
78.7	0.690277
78.92	14.6717
79.14	31.1549
79.36	3.49645
79.58	7.58214
79.8	18.1966
80.02	25.9017
80.24	25.553
80.46	23.2489
80.68	25.5388
80.9	24.9606
81.12	2.57542
81.34	6.25603
81.56	11.9887
81.78	17.8463
82	4.82329
82.22	19.7633
82.44	16.9643
82.66	1.0378
82.88	15.2204
83.1	23.8894
83.32	11.5862
83.54	10.6359
83.76	17.4827
83.98	11.4853
84.2	4.14066
84.42	21.0243
84.64	9.41333
84.86	21.4613
85.08	17.2405
85.3	32.2895
85.52	8.50485
85.74	24.4031
85.96	22.373
86.18	28.7412
86.4	1.91077
86.62	12.6651
86.84	17.5976
87.06	16.4267
87.28	34.9324
87.5	19.5254
87.72	26.0631
87.94	16.8675
88.16	9.61792
88.38	14.1776
88.6	9.45815
88.82	34.6048
89.04	23.9396
89.26	33.4705
89.48	25.1745
89.7	2.28272
89.92	11.3827
