Measurement: Powder, Xray Data XY Processed
Mineral: Heklaite
Rruff sample: R090034
Ideal chemistry: KNaSiF_6_
Locality: Bone Valley district, Bartow, Polk County, Florida
Source: Thomas P. Moore
Description: Synthetic colorless hexagonal dipyramid
Diffraction sample description: Powder
Cell parameters: a: 9.3375(5) b: 5.5009(3) c: 9.7912(7) alpha: 90 beta: 90 gamma: 90 volume: 502.92(4) crystal system: orthorhombic
x	intensity
5	0
5.22	14.1723
5.44	4.77555
5.66	17.9172
5.88	11.9143
6.1	26.1282
6.32	7.34879
6.54	7.39259
6.76	0.447186
6.98	3.46498
7.2	11.9759
7.42	8.22265
7.64	4.15016
7.86	4.74211
8.08	2.96964
8.3	7.19205
8.52	4.11071
8.74	8.93807
8.96	6.9932
9.18	6.00434
9.4	0.128979
9.62	5.08869
9.84	4.95828
10.06	16.1972
10.28	0.099612
10.5	1.20169
10.72	11.304
10.94	8.147
11.16	2.567
11.38	1.73982
11.6	6.96964
11.82	1.84729
12.04	5.01083
12.26	0.734117
12.48	1.20728
12.7	7.48884
12.92	4.61342
13.14	48.5436
13.36	7.71408
13.58	13.412
13.8	7.03099
14.02	12.3965
14.24	3.46481
14.46	6.57982
14.68	4.84352
14.9	7.95092
15.12	7.79477
15.34	2.87635
15.56	8.13674
15.78	4.88964
16	7.39313
16.22	0.372025
16.44	6.36591
16.66	3.89984
16.88	11.9978
17.1	11.7627
17.32	2.7984
17.54	4.77665
17.76	2.1954
17.98	6.63995
18.2	108.161
18.42	19.7153
18.64	10.87
18.86	10.7774
19.08	56.7253
19.3	5.65938
19.52	0.423743
19.74	0.508893
19.96	2.43938
20.18	6.36782
20.4	23.4789
20.62	131.968
20.84	201.869
21.06	31.7414
21.28	2.80987
21.5	3.89673
21.72	8.12558
21.94	6.63475
22.16	0.913447
22.38	5.19316
22.6	0.255664
22.82	11.5056
23.04	3.54171
23.26	0.512817
23.48	0.993438
23.7	4.93497
23.92	10.939
24.14	10.8611
24.36	1.66691
24.58	4.36454
24.8	2.05058
25.02	2.7296
25.24	3.36353
25.46	0.039335
25.68	6.64703
25.9	7.11062
26.12	57.0561
26.34	131.853
26.56	104.218
26.78	274.786
27	16.0453
27.22	4.54778
27.44	2.05965
27.66	6.13892
27.88	0.611101
28.1	5.60481
28.32	0.23987
28.54	0.419351
28.76	0.852753
28.98	9.93755
29.2	4.68679
29.42	3.70629
29.64	4.25713
29.86	6.46516
30.08	16.0965
30.3	17.1863
30.52	0.279062
30.74	1.35289
30.96	7.45228
31.18	2.15024
31.4	3.41045
31.62	6.35254
31.84	15.2569
32.06	10.3824
32.28	9.1815
32.5	15.5106
32.72	12.5474
32.94	14.6898
33.16	1.69731
33.38	6.60745
33.6	1.55842
33.82	0.446576
34.04	4.55128
34.26	9.51755
34.48	19.6096
34.7	1.65576
34.92	2.61786
35.14	6.8217
35.36	4.53874
35.58	0.883943
35.8	3.19678
36.02	2.95768
36.24	5.03352
36.46	1.92077
36.68	7.83328
36.9	4.18976
37.12	4.97127
37.34	5.35613
37.56	19.6094
37.78	5.92705
38	44.0529
38.22	7.22782
38.44	0.039254
38.66	13.5907
38.88	1.31726
39.1	80.0623
39.32	28.1214
39.54	8.34015
39.76	10.027
39.98	29.0982
40.2	34.2458
40.42	10.4019
40.64	5.53657
40.86	0.551399
41.08	3.45422
41.3	3.51712
41.52	20.4631
41.74	14.3514
41.96	3.63557
42.18	2.96049
42.4	1.28651
42.62	4.088
42.84	3.88304
43.06	21.6545
43.28	15.4779
43.5	1.99594
43.72	9.97756
43.94	16.9918
44.16	172.026
44.38	20.407
44.6	4.24818
44.82	10.2477
45.04	84.8086
45.26	21.076
45.48	3.58872
45.7	3.84954
45.92	0.16986
46.14	9.95534
46.36	6.06749
46.58	6.13032
46.8	1.13708
47.02	7.5262
47.24	31.2645
47.46	77.0298
47.68	16.3439
47.9	42.7362
48.12	19.6605
48.34	0.425824
48.56	2.32833
48.78	4.08753
49	1.22924
49.22	9.36574
49.44	33.6137
49.66	12.6202
49.88	17.7025
50.1	8.37266
50.32	29.7492
50.54	27.0928
50.76	9.95942
50.98	6.624
51.2	8.09893
51.42	18.6402
51.64	1.73329
51.86	6.14318
52.08	2.51686
52.3	3.37206
52.52	18.5657
52.74	5.87751
52.96	2.00815
53.18	0.678953
53.4	6.14681
53.62	4.10297
53.84	8.06547
54.06	4.9624
54.28	11.6256
54.5	15.5141
54.72	34.7376
54.94	17.2188
55.16	7.7688
55.38	13.6324
55.6	0.925229
55.82	3.32721
56.04	0.464665
56.26	2.30229
56.48	4.33273
56.7	5.35682
56.92	2.23523
57.14	7.02445
57.36	6.51671
57.58	0.885438
57.8	1.62524
58.02	9.33463
58.24	2.9651
58.46	6.77
58.68	29.8342
58.9	5.32192
59.12	12.4011
59.34	8.71993
59.56	2.19541
59.78	3.51995
60	8.07778
60.22	6.55522
60.44	2.86426
60.66	1.07612
60.88	2.29195
61.1	2.22329
61.32	4.30552
61.54	3.23911
61.76	3.02386
61.98	6.51591
62.2	3.46496
62.42	6.11595
62.64	2.32867
62.86	9.8508
63.08	20.9603
63.3	12.0284
63.52	2.24256
63.74	3.33676
63.96	4.11876
64.18	5.02782
64.4	9.21617
64.62	13.7574
64.84	4.75092
65.06	4.69244
65.28	9.29964
65.5	7.37157
65.72	2.2402
65.94	1.23604
66.16	3.35902
66.38	5.06307
66.6	12.885
66.82	13.77
67.04	17.3859
67.26	4.32388
67.48	0.900464
67.7	1.09991
67.92	5.33454
68.14	10.3865
68.36	12.5488
68.58	6.09247
68.8	1.16378
69.02	1.6596
69.24	3.43871
69.46	5.24648
69.68	7.52112
69.9	12.2596
70.12	20.9283
70.34	16.5196
70.56	7.2647
70.78	7.31922
71	2.43703
71.22	7.45404
71.44	3.55544
71.66	6.69636
71.88	3.61934
72.1	5.90005
72.32	12.416
72.54	6.8723
72.76	6.81659
72.98	3.7199
73.2	4.58988
73.42	1.36953
73.64	2.75915
73.86	0.814598
74.08	4.82085
74.3	5.78804
74.52	0.854186
74.74	1.50459
74.96	1.21519
75.18	4.9959
75.4	2.64956
75.62	4.57796
75.84	1.77113
76.06	6.82335
76.28	12.1123
76.5	1.35399
76.72	12.3427
76.94	4.40755
77.16	4.6716
77.38	2.77797
77.6	5.8497
77.82	2.87235
78.04	2.9247
78.26	0.765783
78.48	13.782
78.7	4.59982
78.92	6.48977
79.14	3.89143
79.36	3.1287
79.58	8.18165
79.8	5.38375
80.02	3.4738
80.24	8.52943
80.46	3.26935
80.68	4.43033
80.9	9.39067
81.12	11.3195
81.34	7.24638
81.56	4.81799
81.78	4.56245
82	7.55307
82.22	11.7191
82.44	5.73524
82.66	6.79439
82.88	1.03805
83.1	3.36815
83.32	4.50303
83.54	0.365708
83.76	2.84075
83.98	5.03556
84.2	5.98798
84.42	2.1396
84.64	6.96985
84.86	13.911
85.08	1.0948
85.3	8.73595
85.52	1.33073
85.74	12.0899
85.96	2.88896
86.18	4.56512
86.4	7.20924
86.62	4.83988
86.84	6.45813
87.06	12.6005
87.28	8.32854
87.5	8.36563
87.72	6.46923
87.94	6.74053
88.16	0.516625
88.38	3.3259
88.6	0.57535
88.82	3.93519
89.04	2.15409
89.26	7.40779
89.48	5.88136
89.7	5.72196
89.92	5.52113
