Measurement: Powder, Xray Data XY Processed
Mineral: Hematite
Rruff sample: R040024
Ideal chemistry: Fe^3+^_2_O_3_
Locality: near Covered Wells, Papago Indian Reservation, Arizona, USA
Source: University of Arizona Mineral Museum
Description: Reddish-black foliatated mass
Diffraction sample description: Powder
Measured chemistry: (Fe_1.99_Al_0.01_)_Î£=2_O_3_
Cell parameters: a: 5.0329(3) b: 5.0329(3) c: 13.743(2) alpha: 90. beta: 90. gamma: 120. volume: 301.49(4) crystal system: hexagonal
x	intensity
5	0
5.22	31.758
5.44	17.83
5.66	8.187
5.88	17.046
6.1	15.322
6.32	6.264
6.54	17.138
6.76	24.25
6.98	22.919
7.2	15.245
7.42	38.555
7.64	25.14
7.86	45.582
8.08	2.335
8.3	7.708
8.52	3.661
8.74	12.405
8.96	28.663
9.18	7.913
9.4	22.02
9.62	32.492
9.84	43.825
10.06	1.787
10.28	29.615
10.5	39.684
10.72	34.135
10.94	4.477
11.16	25.107
11.38	3.221
11.6	62.907
11.82	26.247
12.04	8.798
12.26	55.903
12.48	29.14
12.7	36.593
12.92	30.95
13.14	10.684
13.36	8.532
13.58	30.872
13.8	10.935
14.02	16.854
14.24	28.749
14.46	41.566
14.68	7.426
14.9	25.616
15.12	27.305
15.34	35.46
15.56	49.054
15.78	35.209
16	1.745
16.22	24.17
16.44	12.394
16.66	23.979
16.88	21.466
17.1	24.093
17.32	46.415
17.54	46.602
17.76	24.684
17.98	5.77
18.2	53.512
18.42	39.747
18.64	18.923
18.86	42.334
19.08	24.365
19.3	29.648
19.52	47.382
19.74	14.783
19.96	24.414
20.18	22.684
20.4	34.19
20.62	26.023
20.84	41.84
21.06	35.398
21.28	47.016
21.5	26.307
21.72	16.334
21.94	49.315
22.16	38.359
22.38	39.181
22.6	31.703
22.82	16.495
23.04	27.261
23.26	30.013
23.48	32.524
23.7	5.809
23.92	24.35
24.14	53.513
24.36	36.678
24.58	7.332
24.8	20.294
25.02	18.838
25.24	13.994
25.46	35.125
25.68	43.257
25.9	14.383
26.12	25.851
26.34	24.546
26.56	26.408
26.78	24.053
27	38.41
27.22	35.315
27.44	25.142
27.66	51.6
27.88	31.291
28.1	26.882
28.32	23.05
28.54	34.191
28.76	34.042
28.98	38.732
29.2	32.981
29.42	56.393
29.64	13.585
29.86	26.039
30.08	21.703
30.3	9.605
30.52	25.288
30.74	38.105
30.96	27.848
31.18	31.025
31.4	13.976
31.62	74.423
31.84	55.627
32.06	32.269
32.28	3.632
32.5	40.364
32.72	2.648
32.94	56.641
33.16	152.603
33.38	96.627
33.6	18.002
33.82	35.012
34.04	36.349
34.26	11.569
34.48	22.086
34.7	18.633
34.92	29.343
35.14	35.868
35.36	40.196
35.58	86.946
35.8	102.783
36.02	7.492
36.24	17.01
36.46	19.932
36.68	55.606
36.9	28.233
37.12	35.111
37.34	24.095
37.56	25.599
37.78	19.546
38	24.726
38.22	1.264
38.44	38.206
38.66	8.491
38.88	11.447
39.1	19.203
39.32	26.143
39.54	24.099
39.76	2.132
39.98	36.961
40.2	1.968
40.42	20.375
40.64	37.152
40.86	66.817
41.08	26.752
41.3	29.316
41.52	29.448
41.74	26.961
41.96	28.882
42.18	3.143
42.4	15.903
42.62	40.034
42.84	29.016
43.06	5.964
43.28	28.198
43.5	36.777
43.72	6.12
43.94	25.255
44.16	42.525
44.38	19.675
44.6	0.948
44.82	39.887
45.04	57.53
45.26	34.209
45.48	27.051
45.7	27.121
45.92	25.601
46.14	2.402
46.36	9.148
46.58	8.427
46.8	36.68
47.02	11.579
47.24	22.462
47.46	23.889
47.68	57.389
47.9	2.314
48.12	23.862
48.34	10.151
48.56	44.525
48.78	4.796
49	3.928
49.22	54.837
49.44	67.524
49.66	98.306
49.88	53.38
50.1	35.325
50.32	7.123
50.54	14.043
50.76	19.116
50.98	11.612
51.2	2.053
51.42	4.047
51.64	12.768
51.86	21.482
52.08	19.159
52.3	13.146
52.52	13.683
52.74	31.318
52.96	26.268
53.18	21.491
53.4	16.428
53.62	14.414
53.84	34.054
54.06	105.5
54.28	119.767
54.5	22.486
54.72	50.451
54.94	34.925
55.16	41.117
55.38	34.566
55.6	8.927
55.82	55.839
56.04	20.751
56.26	16.85
56.48	13.339
56.7	17.273
56.92	37.272
57.14	28.752
57.36	60.211
57.58	59.432
57.8	4.06
58.02	47.413
58.24	46.834
58.46	0.018
58.68	29.447
58.9	7.919
59.12	61.505
59.34	10.667
59.56	6.352
59.78	15.734
60	22.982
60.22	16.289
60.44	14.259
60.66	15.167
60.88	31.519
61.1	28.531
61.32	8.372
61.54	32.131
61.76	40.593
61.98	44.068
62.2	2.466
62.42	61.124
62.64	67.95
62.86	11.553
63.08	36.65
63.3	52.616
63.52	9.637
63.74	7.795
63.96	47.388
64.18	72.953
64.4	2.655
64.62	6.677
64.84	30.378
65.06	41.654
65.28	58.494
65.5	3.756
65.72	29.644
65.94	27.345
66.16	14.197
66.38	27.283
66.6	36.424
66.82	64.696
67.04	16.09
67.26	30.338
67.48	54.635
67.7	40.605
67.92	55.892
68.14	21.336
68.36	8.633
68.58	4.399
68.8	2.402
69.02	30.743
69.24	10.619
69.46	26.645
69.68	35.671
69.9	30.179
70.12	41.584
70.34	25.877
70.56	46.422
70.78	19.064
71	21.678
71.22	46.871
71.44	38.37
71.66	43.622
71.88	49.17
72.1	54.874
72.32	14.108
72.54	55.742
72.76	28.074
72.98	66.803
73.2	51.268
73.42	23.549
73.64	36.353
73.86	38.251
74.08	20.228
74.3	46.485
74.52	3.978
74.74	11.179
74.96	30.949
75.18	28.868
75.4	11.631
75.62	0.658
75.84	52.529
76.06	26.086
76.28	45.108
76.5	35.855
76.72	19.149
76.94	44.999
77.16	40.701
77.38	30.462
77.6	35.645
77.82	21.965
78.04	6.664
78.26	29.515
78.48	1.714
78.7	32.422
78.92	35.641
79.14	19.451
79.36	17.958
79.58	5.942
79.8	17.363
80.02	2.225
80.24	8.729
80.46	15.832
80.68	43.699
80.9	34.597
81.12	10
81.34	32.176
81.56	40.082
81.78	20.387
82	35.764
82.22	16.511
82.44	0.195
82.66	27.735
82.88	1.544
83.1	49.6
83.32	60.216
83.54	10.436
83.76	60.888
83.98	0.336
84.2	56.088
84.42	20.983
84.64	17.502
84.86	2.542
85.08	18.684
85.3	9.682
85.52	49.326
85.74	21.084
85.96	12.122
86.18	0.039
86.4	28.874
86.62	6.882
86.84	7.265
87.06	41.525
87.28	23.738
87.5	40.231
87.72	50.494
87.94	38.768
88.16	70.3
88.38	46.88
88.6	70.07
88.82	57.588
89.04	6.995
89.26	62.6
89.48	41.391
89.7	68.44
89.92	1.602
