Measurement: Powder, Xray Data XY Processed
Mineral: Hemimorphite
Rruff sample: R040117
Ideal chemistry: Zn^2+^_4_Si_2_O_7_(OH)_2_H_2_O
Locality: Durango, Mexico
Source: University of Arizona Mineral Museum
Description: Colorless thin tabular crystals in a sheaflike aggregate
Diffraction sample description: Powder
Measured chemistry: Zn_4.05_Si_1.97_O_7_((OH)_0.99_F_0.01_)_2_Â·H_2_O
Cell parameters: a: 8.3691(2) b: 10.7208(3) c: 5.1156(1) alpha: 90. beta: 90. gamma: 90. volume: 458.99(1) crystal system: orthorhombic
x	intensity
5	0
5.22	11.9342
5.44	16.9213
5.66	9.72233
5.88	4.60305
6.1	16.8576
6.32	15.5819
6.54	3.41784
6.76	9.39075
6.98	6.44044
7.2	4.42849
7.42	9.61476
7.64	6.72974
7.86	3.81827
8.08	5.88109
8.3	8.84148
8.52	1.795
8.74	4.5474
8.96	9.6869
9.18	3.24469
9.4	7.81004
9.62	2.99457
9.84	0.604752
10.06	5.8934
10.28	4.16763
10.5	2.80176
10.72	12.1924
10.94	11.017
11.16	0.087212
11.38	8.88187
11.6	1.63793
11.82	7.97705
12.04	3.44541
12.26	14.4742
12.48	5.91796
12.7	5.4133
12.92	6.50513
13.14	28.9634
13.36	167.794
13.58	66.5648
13.8	8.75816
14.02	10.6637
14.24	1.71101
14.46	8.87582
14.68	10.0977
14.9	1.44697
15.12	12.9093
15.34	3.0649
15.56	3.97483
15.78	3.99628
16	9.62157
16.22	1.23432
16.44	39.1814
16.66	91.2087
16.88	9.37302
17.1	7.03705
17.32	6.15109
17.54	3.04093
17.76	8.23018
17.98	10.3552
18.2	3.31028
18.42	5.25834
18.64	14.4272
18.86	4.41492
19.08	15.4406
19.3	334.202
19.52	5.49509
19.74	5.26746
19.96	3.07737
20.18	1.71322
20.4	10.5041
20.62	12.4327
20.84	0.432464
21.06	16.4409
21.28	793.315
21.5	22.4045
21.72	5.49294
21.94	0.62911
22.16	7.89863
22.38	10.2666
22.6	4.62759
22.82	7.3082
23.04	16.483
23.26	10.4348
23.48	3.53251
23.7	9.48213
23.92	3.45312
24.14	3.03907
24.36	9.66643
24.58	1.74687
24.8	8.36436
25.02	6.00181
25.24	0.073724
25.46	7.24047
25.68	3.46959
25.9	8.64884
26.12	8.54608
26.34	15.5257
26.56	18.2246
26.78	17.4544
27	95.5787
27.22	632.267
27.44	15.5162
27.66	12.1264
27.88	0.739414
28.1	9.41549
28.32	4.2021
28.54	15.0845
28.76	380.494
28.98	101.406
29.2	18.43
29.42	20.3425
29.64	10.1128
29.86	4.6707
30.08	6.06022
30.3	11.788
30.52	343.265
30.74	18.7664
30.96	23.8315
31.18	2.31986
31.4	17.1372
31.62	21.5269
31.84	5.01736
32.06	2.52891
32.28	0.564362
32.5	2.64006
32.72	3.74262
32.94	10.3186
33.16	16.0989
33.38	30.6284
33.6	13.6797
33.82	8.40983
34.04	8.43371
34.26	2.62812
34.48	5.38322
34.7	11.8767
34.92	45.9238
35.14	364.823
35.36	24.2089
35.58	9.92228
35.8	1.77702
36.02	1.31976
36.24	13.7492
36.46	10.2766
36.68	245.956
36.9	37.6584
37.12	4.839
37.34	27.3495
37.56	334.249
37.78	40.8292
38	3.2599
38.22	3.5423
38.44	4.986
38.66	2.20654
38.88	6.30514
39.1	26.3144
39.32	1.90807
39.54	15.6418
39.76	4.62607
39.98	56.3956
40.2	11.9136
40.42	25.6542
40.64	79.0105
40.86	9.5564
41.08	331.343
41.3	35.3773
41.52	56.5981
41.74	1.8856
41.96	11.0443
42.18	6.79762
42.4	2.52391
42.62	6.09934
42.84	3.32013
43.06	9.74409
43.28	71.8746
43.5	8.55579
43.72	16.931
43.94	6.1502
44.16	0.879642
44.38	3.99401
44.6	21.859
44.82	70.7977
45.04	77.9001
45.26	12.2184
45.48	4.68828
45.7	7.15125
45.92	26.6534
46.14	7.36465
46.36	15.9835
46.58	4.45632
46.8	13.1459
47.02	5.32239
47.24	4.35026
47.46	6.57303
47.68	4.04671
47.9	12.3196
48.12	1.54561
48.34	3.96321
48.56	2.86386
48.78	5.61635
49	15.5819
49.22	93.6963
49.44	26.3274
49.66	10.1389
49.88	4.70497
50.1	0.717821
50.32	15.7825
50.54	88.3615
50.76	13.2473
50.98	22.8899
51.2	78.2828
51.42	16.2721
51.64	3.94278
51.86	15.2492
52.08	8.92456
52.3	0.373116
52.52	1.32319
52.74	4.07798
52.96	17.9731
53.18	8.17419
53.4	5.37338
53.62	0.075827
53.84	56.8726
54.06	12.9107
54.28	12.2195
54.5	29.1666
54.72	3.22751
54.94	19.8843
55.16	30.915
55.38	12.6274
55.6	50.4162
55.82	15.563
56.04	12.3514
56.26	7.28781
56.48	0.86685
56.7	0.368589
56.92	21.0038
57.14	17.779
57.36	6.77691
57.58	1.04248
57.8	19.7071
58.02	20.0333
58.24	0.898546
58.46	7.62978
58.68	7.29792
58.9	2.62627
59.12	115.084
59.34	36.6131
59.56	4.88384
59.78	0.903503
60	3.28475
60.22	25.1036
60.44	0.226208
60.66	16.5863
60.88	23.7559
61.1	167.038
61.32	115.829
61.54	38.7128
61.76	0.169537
61.98	5.5418
62.2	1.81446
62.42	8.9837
62.64	0.888309
62.86	2.60972
63.08	3.10642
63.3	14.8358
63.52	91.1415
63.74	25.4302
63.96	108.018
64.18	56.4834
64.4	29.6578
64.62	75.173
64.84	29.1923
65.06	13.5269
65.28	12.271
65.5	4.41883
65.72	11.7081
65.94	13.7254
66.16	0.729151
66.38	9.28958
66.6	42.7556
66.82	9.12509
67.04	3.40044
67.26	8.5315
67.48	38.0332
67.7	104.866
67.92	51.1467
68.14	4.37629
68.36	2.83636
68.58	28.8105
68.8	9.73492
69.02	7.67275
69.24	7.90577
69.46	1.53352
69.68	7.07641
69.9	0.35843
70.12	8.12148
70.34	5.71925
70.56	9.10406
70.78	12.2291
71	3.17297
71.22	4.98185
71.44	0.264077
71.66	13.1473
71.88	10.4796
72.1	0.727489
72.32	8.8915
72.54	31.874
72.76	13.6594
72.98	14.4828
73.2	0.790209
73.42	4.20962
73.64	9.26146
73.86	16.7053
74.08	30.8789
74.3	31.7086
74.52	4.76241
74.74	4.97764
74.96	6.76615
75.18	1.34667
75.4	4.76576
75.62	3.22026
75.84	12.5873
76.06	7.85541
76.28	5.73734
76.5	0.624117
76.72	7.45705
76.94	13.2941
77.16	1.11472
77.38	4.53503
77.6	1.78467
77.82	11.7045
78.04	6.49878
78.26	11.4793
78.48	1.06145
78.7	1.13241
78.92	4.45152
79.14	5.30923
79.36	2.12027
79.58	10.9534
79.8	5.66946
80.02	9.97078
80.24	8.73396
80.46	10.7564
80.68	11.9894
80.9	39.9749
81.12	14.6858
81.34	4.92851
81.56	1.96828
81.78	5.93295
82	5.84313
82.22	6.75246
82.44	5.66763
82.66	6.59001
82.88	32.3801
83.1	14.1651
83.32	11.0668
83.54	8.87103
83.76	25.1072
83.98	8.47956
84.2	2.54634
84.42	4.66767
84.64	3.82875
84.86	3.04071
85.08	6.03781
85.3	13.0206
85.52	20.305
85.74	0.707659
85.96	14.5547
86.18	42.9429
86.4	18.2475
86.62	8.43815
86.84	4.49924
87.06	6.84068
87.28	6.01427
87.5	16.2884
87.72	6.44265
87.94	6.97118
88.16	7.04937
88.38	7.26714
88.6	10.2782
88.82	0.939042
89.04	16.9736
89.26	24.3387
89.48	5.17083
89.7	1.19576
89.92	15.8382
