Measurement: Powder, Xray Data XY Processed
Mineral: Hemimorphite
Rruff sample: R070536
Ideal chemistry: Zn^2+^_4_Si_2_O_7_(OH)_2_H_2_O
Locality: Potosi mine, Santa Eulalia District, Chihuahua, Mexico
Source: James Shigley
Description: Colorless striated thin tabular crystals in fan-shaped aggregates
Diffraction sample description: Powder
Measured chemistry: Zn_4.00_Si_2.00_O_7_(OH)_2_Â·H_2_O; total H_2_O estimated by difference, (OH) by charge balance
Cell parameters: a: 8.36933(9) b: 10.7211(2) c: 5.11538(7) alpha: 90 beta: 90 gamma: 90 volume: 458.994(8) crystal system: orthorhombic
x	intensity
5	0
5.22	14.0585
5.44	8.84749
5.66	6.56284
5.88	0.806967
6.1	13.9159
6.32	18.8279
6.54	15.1903
6.76	8.41308
6.98	6.82999
7.2	19.4491
7.42	7.01743
7.64	19.4954
7.86	11.0579
8.08	0.348745
8.3	8.44485
8.52	16.4406
8.74	7.19083
8.96	15.0537
9.18	12.7591
9.4	8.68046
9.62	4.13648
9.84	14.4536
10.06	2.24414
10.28	3.17076
10.5	6.32575
10.72	6.25938
10.94	14.1002
11.16	14.4605
11.38	5.92767
11.6	3.43388
11.82	4.64163
12.04	7.90823
12.26	1.28499
12.48	1.73609
12.7	4.79866
12.92	11.0907
13.14	15.775
13.36	343.695
13.58	44.1175
13.8	16.7072
14.02	4.69172
14.24	14.8865
14.46	1.46756
14.68	8.14874
14.9	11.6654
15.12	1.17253
15.34	7.51185
15.56	0.719213
15.78	8.79203
16	10.5822
16.22	5.78962
16.44	58.258
16.66	63.4328
16.88	0.48834
17.1	1.6409
17.32	9.40217
17.54	8.54721
17.76	10.2059
17.98	7.27505
18.2	9.32858
18.42	5.25544
18.64	11.3849
18.86	7.89428
19.08	16.3673
19.3	340.986
19.52	2.04096
19.74	1.12375
19.96	8.80615
20.18	14.187
20.4	2.12179
20.62	0.325087
20.84	0.571779
21.06	13.5145
21.28	587.528
21.5	8.47015
21.72	4.44303
21.94	9.55228
22.16	0.112848
22.38	1.11476
22.6	6.67309
22.82	9.22504
23.04	6.20468
23.26	5.02696
23.48	1.05525
23.7	3.67541
23.92	8.07981
24.14	14.224
24.36	9.22858
24.58	9.98977
24.8	7.63309
25.02	2.99212
25.24	3.94009
25.46	2.78318
25.68	7.21838
25.9	11.2601
26.12	11.3956
26.34	25.6709
26.56	10.292
26.78	13.9597
27	235.011
27.22	720.111
27.44	13.4506
27.66	2.57174
27.88	3.85937
28.1	10.6111
28.32	1.35169
28.54	21.7494
28.76	846.983
28.98	76.6203
29.2	16.1383
29.42	12.1395
29.64	4.61064
29.86	14.6008
30.08	6.01747
30.3	14.6527
30.52	686.324
30.74	28.7369
30.96	0.933405
31.18	16.1768
31.4	1.79492
31.62	29.7654
31.84	6.59653
32.06	8.82293
32.28	6.04393
32.5	4.90735
32.72	4.48842
32.94	1.96426
33.16	33.2914
33.38	37.1503
33.6	14.0843
33.82	18.6739
34.04	6.66913
34.26	5.97615
34.48	1.09714
34.7	13.0469
34.92	16.0483
35.14	286.854
35.36	17.0233
35.58	2.46147
35.8	7.6852
36.02	7.73006
36.24	12.8516
36.46	3.54816
36.68	534.411
36.9	25.4825
37.12	9.68113
37.34	32.8508
37.56	539.877
37.78	40.8775
38	26.2291
38.22	8.56251
38.44	1.22394
38.66	1.58742
38.88	5.56688
39.1	20.782
39.32	4.13807
39.54	20.3087
39.76	1.86118
39.98	11.8256
40.2	10.9565
40.42	30.7487
40.64	18.6881
40.86	9.30444
41.08	199.351
41.3	44.338
41.52	42.8034
41.74	13.6629
41.96	11.3528
42.18	3.03703
42.4	5.53891
42.62	6.05021
42.84	3.59689
43.06	5.38084
43.28	54.1718
43.5	4.96905
43.72	9.47367
43.94	10.2047
44.16	11.999
44.38	8.84482
44.6	12.1108
44.82	114.216
45.04	51.3601
45.26	10.0763
45.48	4.94396
45.7	16.6393
45.92	18.0098
46.14	8.59972
46.36	17.021
46.58	11.5599
46.8	4.80682
47.02	18.1989
47.24	5.26276
47.46	4.15128
47.68	16.0393
47.9	8.03776
48.12	6.30534
48.34	2.72961
48.56	3.5955
48.78	6.92747
49	25.4022
49.22	107.748
49.44	17.8106
49.66	8.44124
49.88	2.62311
50.1	2.1914
50.32	10.8642
50.54	50.2895
50.76	26.0179
50.98	31.1703
51.2	93.9099
51.42	1.33421
51.64	6.06389
51.86	0.197601
52.08	2.62791
52.3	2.04853
52.52	8.48029
52.74	7.31094
52.96	7.50958
53.18	0.590643
53.4	0.69376
53.62	0.505077
53.84	62.9746
54.06	29.0842
54.28	5.82679
54.5	22.1331
54.72	4.57074
54.94	20.1861
55.16	39.7976
55.38	5.2353
55.6	27.9874
55.82	25.4755
56.04	12.0505
56.26	0.68961
56.48	7.57689
56.7	0.156548
56.92	13.1385
57.14	16.3724
57.36	8.86351
57.58	4.45831
57.8	17.2553
58.02	20.8906
58.24	10.6863
58.46	3.5755
58.68	0.050255
58.9	5.50881
59.12	165.019
59.34	19.9965
59.56	8.7612
59.78	10.7435
60	0.214155
60.22	12.4437
60.44	0.471884
60.66	33.816
60.88	40.2665
61.1	378.754
61.32	78.577
61.54	17.5137
61.76	3.67613
61.98	7.67798
62.2	3.94184
62.42	0.984095
62.64	5.86858
62.86	12.6388
63.08	16.0832
63.3	14.3807
63.52	82.2679
63.74	15.7788
63.96	155.235
64.18	46.0381
64.4	46.7144
64.62	79.5162
64.84	18.721
65.06	1.55869
65.28	4.02153
65.5	0.031485
65.72	1.77295
65.94	13.2095
66.16	19.0391
66.38	6.7408
66.6	41.956
66.82	19.499
67.04	28.3892
67.26	31.9502
67.48	13.2117
67.7	59.0459
67.92	45.4203
68.14	2.71676
68.36	8.88944
68.58	66.5185
68.8	10.6209
69.02	19.2388
69.24	13.1973
69.46	9.04695
69.68	7.17715
69.9	3.72354
70.12	6.0893
70.34	11.3003
70.56	17.4436
70.78	6.28198
71	11.3409
71.22	2.91296
71.44	18.1549
71.66	11.9575
71.88	6.8796
72.1	14.9119
72.32	22.0717
72.54	41.1264
72.76	26.2752
72.98	13.3815
73.2	4.07937
73.42	11.1908
73.64	5.34357
73.86	7.87116
74.08	38.1147
74.3	41.2215
74.52	10.8016
74.74	14.8984
74.96	0.052238
75.18	8.64268
75.4	6.88936
75.62	6.19385
75.84	10.5104
76.06	15.8535
76.28	1.31599
76.5	23.1828
76.72	6.21053
76.94	18.1257
77.16	4.12351
77.38	8.80738
77.6	1.36169
77.82	6.70976
78.04	13.4816
78.26	16.2919
78.48	2.26156
78.7	4.92116
78.92	6.20563
79.14	1.81331
79.36	0.424293
79.58	8.04441
79.8	7.69208
80.02	4.31247
80.24	6.74622
80.46	15.6825
80.68	22.5655
80.9	22.0252
81.12	28.2825
81.34	0.776848
81.56	6.4241
81.78	13.7418
82	0.091859
82.22	4.37818
82.44	8.86108
82.66	2.91104
82.88	66.9807
83.1	32.3853
83.32	4.77485
83.54	14.8523
83.76	26.6775
83.98	1.64484
84.2	4.37626
84.42	1.02382
84.64	7.7027
84.86	12.1475
85.08	12.7965
85.3	29.3292
85.52	23.5796
85.74	9.76197
85.96	25.6291
86.18	45.9773
86.4	17.9476
86.62	7.08454
86.84	11.3725
87.06	11.0724
87.28	10.4788
87.5	12.0527
87.72	7.41515
87.94	17.7351
88.16	7.00773
88.38	16.3668
88.6	5.70796
88.82	12.7231
89.04	22.0196
89.26	12.1509
89.48	1.81712
89.7	10.6866
89.92	10.3995
