Measurement: Powder, Xray Data XY Processed
Mineral: Heulandite-Ca
Rruff sample: R060465
Ideal chemistry: (Ca,Na,K)_5_(Si_27_Al_9_)O_72_26H_2_O
Locality: Garrawilla, near Gunnadah, New South Wales, Australia
Source: Michael Scott
Description: Orange fan of platy crystals
Diffraction sample description: Powder
Measured chemistry: (Ca_0.66_Na_0.24_K_0.10_)_5_(Si_0.77_Al_0.23_)_36_O_72_Â·24H_2_O
Cell parameters: a: 17.691(2) b: 17.963(3) c: 7.4190(5) alpha: 90. beta: 116.479(7) gamma: 90. volume: 2110.4(3) crystal system: monoclinic
x	intensity
5	0
5.22	11.4718
5.44	7.68558
5.66	1.14766
5.88	10.0126
6.1	8.14418
6.32	10.0962
6.54	10.3971
6.76	8.6112
6.98	6.13346
7.2	12.9922
7.42	19.9498
7.64	9.98682
7.86	2.70682
8.08	4.54301
8.3	3.25187
8.52	2.33302
8.74	3.54336
8.96	11.3549
9.18	5.16907
9.4	0.674685
9.62	19.7286
9.84	233.737
10.06	34.4776
10.28	7.57977
10.5	3.77983
10.72	6.87906
10.94	3.28549
11.16	23.9407
11.38	9.48682
11.6	6.85218
11.82	6.50084
12.04	1.82306
12.26	6.21113
12.48	4.90435
12.7	2.38592
12.92	9.57231
13.14	18.7776
13.36	9.27499
13.58	7.17783
13.8	8.09758
14.02	8.2248
14.24	6.08865
14.46	2.30544
14.68	3.18181
14.9	5.16218
15.12	4.94949
15.34	9.80956
15.56	6.39645
15.78	6.92664
16	3.72336
16.22	7.51454
16.44	12.2403
16.66	29.2357
16.88	23.963
17.1	6.22488
17.32	22.1164
17.54	37.9552
17.76	0.274899
17.98	5.69088
18.2	3.63494
18.42	3.55261
18.64	10.6021
18.86	6.62234
19.08	94.5941
19.3	14.3607
19.52	10.4126
19.74	7.82953
19.96	2.08318
20.18	9.59139
20.4	20.0842
20.62	3.14459
20.84	1.08796
21.06	2.81595
21.28	4.54336
21.5	5.06883
21.72	6.60446
21.94	2.00618
22.16	12.8833
22.38	200.603
22.6	57.0528
22.82	170.312
23.04	3.06939
23.26	12.3947
23.48	1.00055
23.7	7.32214
23.92	5.40031
24.14	2.49326
24.36	8.61269
24.58	10.7112
24.8	3.46194
25.02	18.1881
25.24	3.21412
25.46	17.241
25.68	20.3477
25.9	0.175663
26.12	28.5807
26.34	20.7394
26.56	6.33403
26.78	9.55324
27	6.64665
27.22	4.59711
27.44	6.48121
27.66	4.14129
27.88	9.30104
28.1	40.7593
28.32	10.4556
28.54	47.7354
28.76	11.129
28.98	13.2276
29.2	6.58967
29.42	4.38773
29.64	11.8232
29.86	43.0355
30.08	219.349
30.3	46.7715
30.52	0.442223
30.74	1.43688
30.96	3.96473
31.18	5.50549
31.4	6.01104
31.62	0.60156
31.84	2.71801
32.06	53.799
32.28	4.36676
32.5	0.348179
32.72	50.7693
32.94	22.8992
33.16	7.6327
33.38	1.9033
33.6	12.1677
33.82	6.51969
34.04	6.56566
34.26	12.5445
34.48	6.02564
34.7	3.49452
34.92	0.53356
35.14	9.16116
35.36	11.8564
35.58	10.18
35.8	0.232764
36.02	2.36626
36.24	5.50221
36.46	9.21746
36.68	5.21141
36.9	9.30091
37.12	19.4706
37.34	0.665936
37.56	6.37239
37.78	9.59885
38	4.80193
38.22	7.88724
38.44	10.0918
38.66	0.173205
38.88	2.39545
39.1	8.69061
39.32	10.0314
39.54	3.02505
39.76	6.16105
39.98	10.2674
40.2	10.3798
40.42	0.427863
40.64	0.831931
40.86	6.78414
41.08	11.826
41.3	6.57269
41.52	7.52803
41.74	3.31442
41.96	11.2256
42.18	7.07268
42.4	6.97248
42.62	2.85616
42.84	8.91191
43.06	16.8355
43.28	1.74751
43.5	18.8167
43.72	10.0722
43.94	1.27144
44.16	1.52717
44.38	4.86986
44.6	3.0651
44.82	9.1934
45.04	8.13977
45.26	0.955548
45.48	6.89331
45.7	3.10229
45.92	6.97368
46.14	8.04504
46.36	22.0911
46.58	6.05545
46.8	6.13079
47.02	11.5139
47.24	11.8294
47.46	3.96088
47.68	5.05004
47.9	2.21373
48.12	4.01313
48.34	5.01739
48.56	0.080536
48.78	3.96976
49	5.91785
49.22	4.76151
49.44	3.64228
49.66	3.29402
49.88	7.04403
50.1	1.95292
50.32	4.59622
50.54	5.29165
50.76	15.9898
50.98	0.930014
51.2	4.70831
51.42	4.28847
51.64	19.0937
51.86	4.56681
52.08	4.61943
52.3	3.96068
52.52	1.18105
52.74	7.57413
52.96	10.8395
53.18	7.11362
53.4	0.793624
53.62	12.8138
53.84	6.4515
54.06	8.76127
54.28	10.1091
54.5	6.23123
54.72	3.0903
54.94	8.11197
55.16	16.991
55.38	6.09107
55.6	3.38966
55.82	11.4415
56.04	10.0714
56.26	11.9495
56.48	7.01987
56.7	1.03553
56.92	5.96091
57.14	6.03196
57.36	10.1528
57.58	4.52403
57.8	9.31805
58.02	11.4686
58.24	4.46921
58.46	4.51687
58.68	0.433284
58.9	5.46296
59.12	13.6697
59.34	5.72196
59.56	7.61274
59.78	1.58537
60	9.5329
60.22	2.66655
60.44	2.61341
60.66	5.68456
60.88	2.63666
61.1	6.65459
61.32	2.48168
61.54	1.36397
61.76	0.300091
61.98	5.19327
62.2	9.25038
62.42	5.96073
62.64	3.12927
62.86	6.08346
63.08	5.93543
63.3	4.86857
63.52	4.16969
63.74	2.96827
63.96	7.93234
64.18	4.90083
64.4	4.21454
64.62	1.84206
64.84	11.9623
65.06	14.6668
65.28	2.72924
65.5	0.95216
65.72	0.248638
65.94	1.05532
66.16	6.31537
66.38	10.4809
66.6	2.6419
66.82	7.78315
67.04	6.98671
67.26	4.15027
67.48	8.29503
67.7	10.34
67.92	6.22204
68.14	6.90788
68.36	7.82151
68.58	9.83116
68.8	8.87021
69.02	8.78074
69.24	15.4957
69.46	2.2528
69.68	2.5278
69.9	0.460156
70.12	7.49392
70.34	0.817365
70.56	4.90721
70.78	5.13509
71	1.23437
71.22	0.187383
71.44	5.25042
71.66	5.41792
71.88	2.46452
72.1	5.32679
72.32	4.51336
72.54	8.5723
72.76	4.3871
72.98	3.53741
73.2	5.28883
73.42	3.44486
73.64	10.498
73.86	7.43757
74.08	11.2726
74.3	7.24444
74.52	5.23748
74.74	4.99283
74.96	11.8778
75.18	7.98179
75.4	3.93129
75.62	0.98981
75.84	11.5669
76.06	7.72456
76.28	2.76123
76.5	7.89647
76.72	9.00145
76.94	2.06413
77.16	6.28902
77.38	7.27261
77.6	0.866452
77.82	1.93382
78.04	6.10559
78.26	4.01336
78.48	7.96117
78.7	2.03578
78.92	3.00703
79.14	13.0766
79.36	4.08492
79.58	11.9004
79.8	0.931576
80.02	6.35111
80.24	8.76033
80.46	6.84174
80.68	3.88084
80.9	2.12282
81.12	6.30282
81.34	4.0055
81.56	3.03533
81.78	6.1571
82	5.29758
82.22	13.4246
82.44	3.34006
82.66	6.94469
82.88	1.08548
83.1	7.18828
83.32	9.36
83.54	9.21098
83.76	11.5105
83.98	3.65593
84.2	5.80379
84.42	5.69188
84.64	11.4971
84.86	1.76382
85.08	4.16652
85.3	0.987942
85.52	2.18014
85.74	4.87921
85.96	8.83036
86.18	2.51644
86.4	6.51834
86.62	2.29428
86.84	2.37
87.06	5.57725
87.28	2.72605
87.5	9.07925
87.72	4.37306
87.94	1.29722
88.16	1.34798
88.38	9.8387
88.6	6.00927
88.82	3.98944
89.04	3.29953
89.26	3.46059
89.48	3.14687
89.7	7.50091
89.92	1.93203
