Measurement: Powder, Xray Data XY Processed
Mineral: Hollandite
Rruff sample: R070539
Ideal chemistry: Ba(Mn^4+^_6_Mn^3+^_2_)O_16_
Locality: Tangen mine, Hurdalsjoen, Nannestad, Akershus, Norway
Source: James Shigley
Description: Fibrous dark gray submetallic crystals
Diffraction sample description: Powder
Measured chemistry: (Ba_0.94_[box]_0.06_)_Σ=1_(Mn^4+^_7.06_Mn^2+^_0.94_)_Σ=8_O_16_; Mn^4+^ and Mn^2+^ splitted by charge balance
Cell parameters: a: 9.918(2) b: 2.8525(3) c: 9.8115(9) alpha: 90 beta: 90.71(2) gamma: 90 volume: 277.55(5) crystal system: monoclinic
x	intensity
5	0
5.22	1.32076
5.44	10.4604
5.66	12.8758
5.88	15.7436
6.1	10.6402
6.32	23.9571
6.54	31.8372
6.76	21.9439
6.98	7.99249
7.2	2.36176
7.42	14.4829
7.64	5.51276
7.86	1.50922
8.08	16.5158
8.3	11.8905
8.52	11.6284
8.74	6.19867
8.96	11.207
9.18	12.2327
9.4	9.42306
9.62	3.35646
9.84	5.31681
10.06	3.41923
10.28	8.62304
10.5	14.5257
10.72	22.4811
10.94	11.2515
11.16	10.7931
11.38	2.24157
11.6	5.00153
11.82	8.58994
12.04	12.3948
12.26	6.61913
12.48	8.3247
12.7	16.9952
12.92	4.02701
13.14	11.7419
13.36	4.62266
13.58	17.4621
13.8	1.77268
14.02	6.51878
14.24	31.6117
14.46	4.59704
14.68	21.3172
14.9	10.1964
15.12	14.0784
15.34	8.9484
15.56	14.7193
15.78	3.68264
16	15.321
16.22	11.1923
16.44	10.3507
16.66	20.823
16.88	17.2529
17.1	10.5694
17.32	9.19094
17.54	5.75627
17.76	12.3522
17.98	18.4783
18.2	17.4141
18.42	11.1444
18.64	2.94734
18.86	5.54121
19.08	8.4467
19.3	6.33195
19.52	8.22826
19.74	8.49747
19.96	1.93187
20.18	10.3765
20.4	13.2187
20.62	9.92016
20.84	21.5712
21.06	0.272598
21.28	4.70895
21.5	7.35855
21.72	15.2585
21.94	10.9949
22.16	14.2774
22.38	11.2645
22.6	16.9109
22.82	14.594
23.04	8.08236
23.26	16.6556
23.48	9.82365
23.7	3.35226
23.92	0.120956
24.14	1.16879
24.36	0.428257
24.58	11.9974
24.8	6.15785
25.02	4.16343
25.24	16.2084
25.46	39.1952
25.68	41.2512
25.9	13.4205
26.12	16.6594
26.34	13.079
26.56	17.2521
26.78	27.241
27	14.9286
27.22	14.4148
27.44	8.82048
27.66	14.3534
27.88	13.4154
28.1	5.39076
28.32	47.6537
28.54	135.243
28.76	124.353
28.98	38.8791
29.2	13.6159
29.42	0.01128
29.64	22.6215
29.86	15.9924
30.08	14.9909
30.3	10.2077
30.52	16.5715
30.74	10.9036
30.96	9.42275
31.18	9.47626
31.4	9.55774
31.62	4.27265
31.84	12.525
32.06	6.09544
32.28	12.5834
32.5	10.8798
32.72	24.2224
32.94	13.2596
33.16	19.0867
33.38	3.87515
33.6	9.5842
33.82	17.426
34.04	7.24284
34.26	11.7414
34.48	15.8931
34.7	4.5294
34.92	9.29359
35.14	6.85494
35.36	28.7342
35.58	13.6046
35.8	1.3378
36.02	9.53204
36.24	2.18877
36.46	21.7781
36.68	18.4635
36.9	7.48153
37.12	18.7359
37.34	17.7676
37.56	60.8464
37.78	10.4384
38	1.28733
38.22	14.2495
38.44	12.4693
38.66	5.41136
38.88	8.73901
39.1	4.44336
39.32	14.7823
39.54	19.8502
39.76	7.02007
39.98	16.8144
40.2	8.97181
40.42	13.6456
40.64	3.64202
40.86	20.5089
41.08	36.7532
41.3	26.3708
41.52	16.1998
41.74	34.4118
41.96	37.018
42.18	29.7451
42.4	17.159
42.62	16.422
42.84	0.291538
43.06	6.37891
43.28	17.3136
43.5	8.31857
43.72	28.5181
43.94	18.2572
44.16	11.3111
44.38	31.5965
44.6	20.5583
44.82	9.77408
45.04	11.8528
45.26	32.5406
45.48	26.3236
45.7	9.76704
45.92	10.2393
46.14	23.9534
46.36	17.0542
46.58	21.0155
46.8	19.8647
47.02	22.0802
47.24	18.0644
47.46	7.07415
47.68	10.3933
47.9	14.2815
48.12	6.97182
48.34	18.7038
48.56	10.3395
48.78	36.3495
49	9.57455
49.22	16.2622
49.44	38.884
49.66	39.9644
49.88	14.5776
50.1	31.5219
50.32	10.5128
50.54	11.3249
50.76	9.02297
50.98	6.31692
51.2	16.3072
51.42	13.3268
51.64	14.2033
51.86	14.0167
52.08	21.2071
52.3	32.3871
52.52	14.9162
52.74	4.44046
52.96	31.459
53.18	1.86635
53.4	13.2401
53.62	10.4092
53.84	28.1911
54.06	16.609
54.28	15.1551
54.5	4.77478
54.72	28.6948
54.94	12.8333
55.16	18.4506
55.38	14.7348
55.6	32.1579
55.82	10.0743
56.04	15.5588
56.26	8.4998
56.48	10.2981
56.7	15.7368
56.92	21.7401
57.14	10.3672
57.36	2.87024
57.58	14.5748
57.8	3.31569
58.02	10.9992
58.24	25.665
58.46	6.88443
58.68	8.40394
58.9	14.0099
59.12	5.54625
59.34	30.1874
59.56	37.2294
59.78	39.1906
60	52.6211
60.22	34.537
60.44	12.8041
60.66	10.7688
60.88	2.07975
61.1	4.10886
61.32	21.2544
61.54	27.8438
61.76	16.3573
61.98	28.9927
62.2	26.0126
62.42	12.8624
62.64	3.9697
62.86	9.88979
63.08	0.756538
63.3	33.991
63.52	21.4211
63.74	15.437
63.96	10.1082
64.18	17.2836
64.4	3.41485
64.62	8.99118
64.84	15.3698
65.06	20.9464
65.28	4.77231
65.5	37.8407
65.72	8.22876
65.94	16.6948
66.16	12.2796
66.38	29.1187
66.6	2.15092
66.82	6.14268
67.04	18.0428
67.26	26.7645
67.48	0.42495
67.7	1.93671
67.92	7.24265
68.14	11.3712
68.36	7.78782
68.58	18.7734
68.8	7.80357
69.02	8.21527
69.24	12.7635
69.46	19.2176
69.68	25.9193
69.9	3.43735
70.12	28.4225
70.34	9.61773
70.56	11.9572
70.78	11.105
71	21.6504
71.22	13.5159
71.44	19.976
71.66	20.735
71.88	5.93153
72.1	33.0883
72.32	14.4904
72.54	2.57132
72.76	4.14927
72.98	25.2466
73.2	4.10311
73.42	3.52769
73.64	14.679
73.86	2.73628
74.08	19.2924
74.3	15.2988
74.52	19.2854
74.74	3.92012
74.96	9.32834
75.18	31.0357
75.4	3.07787
75.62	21.9307
75.84	23.9646
76.06	19.0023
76.28	20.4825
76.5	14.2297
76.72	27.4502
76.94	13.1235
77.16	4.795
77.38	22.5551
77.6	39.2637
77.82	14.6558
78.04	16.4037
78.26	6.0667
78.48	17.5196
78.7	22.4552
78.92	4.65954
79.14	15.4047
79.36	12.2981
79.58	17.1394
79.8	16.2075
80.02	14.9421
80.24	9.57463
80.46	12.8927
80.68	18.5121
80.9	4.47832
81.12	11.1585
81.34	0.272697
81.56	14.0067
81.78	2.6047
82	16.6655
82.22	23.8284
82.44	16.2515
82.66	17.8098
82.88	22.7251
83.1	18.3367
83.32	15.7414
83.54	15.0995
83.76	13.1959
83.98	15.4574
84.2	13.7813
84.42	24.5647
84.64	5.77045
84.86	7.78577
85.08	11.755
85.3	15.7204
85.52	27.8192
85.74	6.5758
85.96	27.4603
86.18	24.4231
86.4	16.5102
86.62	19.7558
86.84	6.20876
87.06	14.0905
87.28	27.8252
87.5	24.9007
87.72	25.9454
87.94	4.6442
88.16	18.8027
88.38	15.3941
88.6	0.411331
88.82	8.49106
89.04	12.2098
89.26	30.9111
89.48	23.9434
89.7	33.1216
89.92	22.1208
