Measurement: Powder, Xray Data XY Processed
Mineral: Hopeite
Rruff sample: R050254
Ideal chemistry: Zn^2+^_3_(P^5+^O_4_)_2_4H_2_O
Locality: Broken Hill mine, Kabwe, Zambia
Source: Marcus Origlieri
Description: Reddish-orange tabular single crystal
Diffraction sample description: Powder
Measured chemistry: (Zn_2.93_Mg_0.07_)_Σ=3_(P_1.00_O_4_)_2_·4H_2_O
Cell parameters: a: 10.588(1) b: 18.307(1) c: 5.0318(6) alpha: 90 beta: 90 gamma: 90 volume: 975.3(0) crystal system: orthorhombic
x	intensity
5	0
5.22	4.94012
5.44	10.3753
5.66	0.214825
5.88	13.3332
6.1	15.8181
6.32	12.5757
6.54	5.24902
6.76	4.87951
6.98	12.932
7.2	4.13372
7.42	7.41109
7.64	1.23127
7.86	15.5742
8.08	2.52004
8.3	4.42516
8.52	5.33695
8.74	13.9328
8.96	3.79416
9.18	0.633165
9.4	24.2774
9.62	375.689
9.84	43.1536
10.06	20.88
10.28	5.22606
10.5	18.9568
10.72	6.51207
10.94	10.2346
11.16	9.83575
11.38	0.789582
11.6	2.9973
11.82	11.0444
12.04	0.959564
12.26	14.9563
12.48	10.8191
12.7	14.6449
12.92	11.5243
13.14	0.715654
13.36	15.9252
13.58	6.81897
13.8	5.47926
14.02	1.41995
14.24	1.0919
14.46	11.1352
14.68	11.9314
14.9	10.4564
15.12	16.6211
15.34	6.40537
15.56	1.60905
15.78	8.65971
16	15.8805
16.22	3.77154
16.44	10.5281
16.66	67.6237
16.88	22.1323
17.1	15.8586
17.32	41.1605
17.54	64.9701
17.76	1.14884
17.98	7.02613
18.2	73.2203
18.42	45.6453
18.64	6.31874
18.86	2.81742
19.08	6.48934
19.3	127.066
19.52	125.223
19.74	31.7639
19.96	36.9354
20.18	209.542
20.4	15.3204
20.62	3.083
20.84	4.28375
21.06	5.54666
21.28	5.69534
21.5	2.73692
21.72	12.7404
21.94	28.7872
22.16	83.8598
22.38	40.4293
22.6	12.6163
22.82	31.1605
23.04	21.2701
23.26	23.2688
23.48	10.4474
23.7	6.48566
23.92	10.9751
24.14	13.7903
24.36	25.4362
24.58	8.28123
24.8	1.47952
25.02	5.02496
25.24	10.6537
25.46	13.4451
25.68	145.341
25.9	61.7452
26.12	49.9587
26.34	238.952
26.56	21.5946
26.78	16.3598
27	4.11442
27.22	1.64069
27.44	10.9678
27.66	4.83929
27.88	11.3337
28.1	5.72382
28.32	25.2125
28.54	37.6479
28.76	8.31389
28.98	11.4117
29.2	8.63779
29.42	4.05455
29.64	37.2085
29.86	7.54903
30.08	24.9637
30.3	32.1802
30.52	4.17118
30.74	2.82459
30.96	24.0626
31.18	104.4
31.4	517.767
31.62	74.5802
31.84	12.7327
32.06	6.44929
32.28	11.7198
32.5	27.0127
32.72	12.1861
32.94	1.8321
33.16	0.146208
33.38	19.9535
33.6	16.5558
33.82	112.887
34.04	43.6495
34.26	66.989
34.48	27.9399
34.7	25.6005
34.92	3.22986
35.14	17.1281
35.36	65.8969
35.58	47.018
35.8	55.3709
36.02	9.86583
36.24	11.7081
36.46	4.70013
36.68	13.8648
36.9	16.877
37.12	52.9005
37.34	20.5331
37.56	11.7113
37.78	4.14009
38	4.43482
38.22	7.23587
38.44	44.9829
38.66	19.1919
38.88	12.2734
39.1	0.994522
39.32	26.6152
39.54	26.1525
39.76	56.9773
39.98	31.8812
40.2	4.88484
40.42	3.01954
40.64	13.0712
40.86	21.0681
41.08	16.1074
41.3	10.783
41.52	1.98007
41.74	6.36953
41.96	30.1585
42.18	10.4316
42.4	6.73215
42.62	9.98138
42.84	13.392
43.06	51.5554
43.28	17.8382
43.5	15.1963
43.72	7.79517
43.94	1.61226
44.16	3.13008
44.38	2.86575
44.6	7.61468
44.82	7.48579
45.04	12.9421
45.26	62.5835
45.48	48.2506
45.7	14.8514
45.92	0.361259
46.14	7.15862
46.36	3.11657
46.58	22.1502
46.8	76.5311
47.02	52.4222
47.24	16.0161
47.46	0.435638
47.68	2.5381
47.9	8.16779
48.12	8.74703
48.34	9.37443
48.56	3.69422
48.78	5.89971
49	1.86762
49.22	11.1245
49.44	2.25764
49.66	10.394
49.88	26.5134
50.1	37.0798
50.32	24.2171
50.54	10.4535
50.76	3.89431
50.98	10.5823
51.2	3.28088
51.42	16.9001
51.64	12.1458
51.86	7.90899
52.08	2.07125
52.3	1.15353
52.52	14.5181
52.74	18.7264
52.96	11.8905
53.18	17.2639
53.4	8.45126
53.62	8.8044
53.84	5.92283
54.06	31.3803
54.28	15.1535
54.5	12.3063
54.72	3.83872
54.94	26.0858
55.16	11.9901
55.38	13.3093
55.6	0.336813
55.82	0.478004
56.04	18.769
56.26	13.2165
56.48	13.7073
56.7	4.73075
56.92	16.9002
57.14	10.0954
57.36	2.53315
57.58	8.72779
57.8	24.6999
58.02	13.8746
58.24	1.67781
58.46	15.7889
58.68	17.7247
58.9	30.7318
59.12	36.7053
59.34	0.110281
59.56	5.77162
59.78	0.653271
60	2.96179
60.22	0.605595
60.44	22.306
60.66	42.0239
60.88	28.7583
61.1	13.2587
61.32	19.0923
61.54	31.64
61.76	25.8055
61.98	6.1403
62.2	10.2345
62.42	3.57626
62.64	12.7935
62.86	10.1437
63.08	3.42359
63.3	6.21799
63.52	8.59261
63.74	8.43029
63.96	4.15815
64.18	13.9539
64.4	6.66253
64.62	14.8153
64.84	14.7186
65.06	11.8257
65.28	8.86932
65.5	10.404
65.72	5.84112
65.94	14.5813
66.16	6.46019
66.38	6.46025
66.6	2.36822
66.82	3.95692
67.04	4.71106
67.26	9.48398
67.48	12.8208
67.7	13.9288
67.92	22.4816
68.14	13.4382
68.36	4.08959
68.58	4.65772
68.8	1.68934
69.02	4.48868
69.24	11.5099
69.46	7.36456
69.68	2.3236
69.9	23.5925
70.12	5.70687
70.34	8.85934
70.56	8.15733
70.78	4.65048
71	5.80305
71.22	14.0654
71.44	12.9618
71.66	5.47184
71.88	7.17178
72.1	9.08336
72.32	12.0771
72.54	5.2728
72.76	2.39261
72.98	3.20155
73.2	1.00569
73.42	2.03812
73.64	6.94619
73.86	2.72237
74.08	0.592789
74.3	1.88786
74.52	9.20594
74.74	6.33403
74.96	11.6729
75.18	3.49473
75.4	5.7401
75.62	7.88396
75.84	3.03732
76.06	2.16154
76.28	4.21711
76.5	3.05325
76.72	6.85005
76.94	1.69804
77.16	4.44022
77.38	0.636474
77.6	8.82243
77.82	6.36866
78.04	2.60592
78.26	15.7582
78.48	5.04358
78.7	0.532187
78.92	3.93223
79.14	1.29148
79.36	9.43016
79.58	1.4427
79.8	8.50123
80.02	1.18712
80.24	12.0347
80.46	9.09449
80.68	4.20222
80.9	2.18796
81.12	5.8547
81.34	4.68008
81.56	6.58305
81.78	3.96165
82	2.00639
82.22	9.04113
82.44	8.15005
82.66	5.34677
82.88	2.81346
83.1	2.42014
83.32	6.4637
83.54	0.439388
83.76	3.65486
83.98	1.99215
84.2	1.85663
84.42	1.94039
84.64	9.99327
84.86	9.11791
85.08	5.10503
85.3	11.1998
85.52	9.06345
85.74	8.0493
85.96	6.14547
86.18	6.24941
86.4	1.71012
86.62	7.43168
86.84	6.73742
87.06	7.27988
87.28	2.4092
87.5	5.63882
87.72	13.1649
87.94	5.3683
88.16	4.43406
88.38	4.61075
88.6	13.5722
88.82	3.29291
89.04	7.12732
89.26	6.779
89.48	9.87229
89.7	4.01159
89.92	4.60226
