Measurement: Powder, Xray Data XY Processed
Mineral: Hubnerite
Rruff sample: R050069
Ideal chemistry: Mn^2+^W^6+^O_4_
Locality: Yaogangxian, Yizhang County, Hunan Province, China
Source: Rock Currier
Description: Black colored prismatic single crystal
Diffraction sample description: Powder
Measured chemistry: (Mn_0.68_Fe_0.32_)W_1.00_O_4_
Cell parameters: a: 4.7851(5) b: 5.7377(1) c: 4.982(1) alpha: 90. beta: 89.50(1) gamma: 90. volume: 136.77(2) crystal system: monoclinic
x	intensity
5	0
5.22	17.023
5.44	3.838
5.66	5.789
5.88	11.046
6.1	9.533
6.32	18.594
6.54	14.634
6.76	16.413
6.98	11.398
7.2	17.024
7.42	11.021
7.64	5.115
7.86	16.149
8.08	19.954
8.3	13.742
8.52	8.697
8.74	12.444
8.96	18.767
9.18	5.544
9.4	8.05
9.62	7.592
9.84	9.25
10.06	4.931
10.28	0.154
10.5	2.871
10.72	3.119
10.94	11.745
11.16	10.754
11.38	16.09
11.6	2.959
11.82	2.847
12.04	2.422
12.26	9.271
12.48	5.038
12.7	5.941
12.92	12.644
13.14	16.034
13.36	10.974
13.58	14.214
13.8	14.737
14.02	13.543
14.24	17.199
14.46	5.055
14.68	8.03
14.9	8.231
15.12	2.618
15.34	32.657
15.56	82.211
15.78	17.103
16	10.657
16.22	7.646
16.44	3.311
16.66	19.151
16.88	8.937
17.1	9.608
17.32	21.671
17.54	16.91
17.76	2.437
17.98	13.87
18.2	22.669
18.42	60.948
18.64	183.036
18.86	23.256
19.08	4.271
19.3	9.039
19.52	12.775
19.74	15.252
19.96	0.684
20.18	9.96
20.4	8.525
20.62	23.672
20.84	3.12
21.06	5.702
21.28	4.5
21.5	12.16
21.72	10.826
21.94	14.508
22.16	2.086
22.38	2.054
22.6	6.824
22.82	14.251
23.04	6.275
23.26	23.41
23.48	37.951
23.7	241.916
23.92	48.544
24.14	80.514
24.36	117.542
24.58	14.922
24.8	5.573
25.02	20.424
25.24	12.272
25.46	4.199
25.68	0.486
25.9	15.566
26.12	6.376
26.34	9.874
26.56	2.826
26.78	2.977
27	24.799
27.22	19.953
27.44	26.963
27.66	6.444
27.88	13.425
28.1	4.325
28.32	10.046
28.54	8.446
28.76	0.936
28.98	3.411
29.2	6.755
29.42	12.118
29.64	21.724
29.86	90.072
30.08	334.063
30.3	358.286
30.52	165.726
30.74	34.212
30.96	24.282
31.18	87.862
31.4	22.181
31.62	2.834
31.84	8.638
32.06	2.289
32.28	6.751
32.5	1.559
32.72	10.555
32.94	18.417
33.16	0.279
33.38	12.279
33.6	10.307
33.82	7.843
34.04	17.921
34.26	14.919
34.48	6.936
34.7	5.793
34.92	7.227
35.14	9.189
35.36	8.589
35.58	8.555
35.8	33.385
36.02	155.776
36.24	130.988
36.46	56.67
36.68	29.22
36.9	25.088
37.12	24.941
37.34	11.47
37.56	73.724
37.78	22.01
38	11.226
38.22	3.512
38.44	13.372
38.66	6.255
38.88	1.42
39.1	21.488
39.32	15.453
39.54	23.095
39.76	11.979
39.98	14.089
40.2	6.989
40.42	22.59
40.64	38.714
40.86	50.539
41.08	72.316
41.3	30.001
41.52	12.246
41.74	3.688
41.96	13.176
42.18	16.944
42.4	2.018
42.62	10.906
42.84	12.538
43.06	6.881
43.28	6.951
43.5	19.112
43.72	17.022
43.94	16.529
44.16	20.445
44.38	7.048
44.6	6.05
44.82	32.947
45.04	35.699
45.26	5.803
45.48	23.574
45.7	14.207
45.92	7.439
46.14	5.962
46.36	2.03
46.58	5.73
46.8	10.504
47.02	15.779
47.24	0.565
47.46	9.95
47.68	8.958
47.9	13.02
48.12	4.166
48.34	31.551
48.56	30.515
48.78	11.652
49	4.459
49.22	3.997
49.44	3.505
49.66	42.627
49.88	25.549
50.1	0.103
50.32	9.517
50.54	9.866
50.76	3.324
50.98	23.995
51.2	28.469
51.42	54.038
51.64	48.16
51.86	22.383
52.08	4.201
52.3	4.587
52.52	29.2
52.74	46.655
52.96	69.853
53.18	60.277
53.4	82.035
53.62	37.467
53.84	0.17
54.06	6.235
54.28	21.961
54.5	0.449
54.72	12.951
54.94	22.514
55.16	21.176
55.38	4.688
55.6	4.346
55.82	15.016
56.04	10.52
56.26	10.89
56.48	0.252
56.7	0.538
56.92	5.216
57.14	16.943
57.36	5.026
57.58	6.754
57.8	27.365
58.02	14.769
58.24	12.065
58.46	15.36
58.68	4.512
58.9	9.415
59.12	12.728
59.34	15.607
59.56	8.734
59.78	12.659
60	13.027
60.22	6.779
60.44	8.485
60.66	13.376
60.88	28.993
61.1	32.564
61.32	35.728
61.54	18.717
61.76	7.858
61.98	0.295
62.2	9.462
62.42	13.267
62.64	9.323
62.86	12.908
63.08	32.047
63.3	28.207
63.52	32.97
63.74	12.969
63.96	0.026
64.18	29.878
64.4	11.074
64.62	29.456
64.84	41.573
65.06	26.774
65.28	10.194
65.5	0.107
65.72	2.182
65.94	12.408
66.16	0.055
66.38	15.979
66.6	15.667
66.82	9.789
67.04	4.969
67.26	13.477
67.48	14.772
67.7	29.472
67.92	37.391
68.14	42.27
68.36	11.584
68.58	3.28
68.8	14.728
69.02	2.624
69.24	6.766
69.46	12.605
69.68	17.503
69.9	10.397
70.12	9.279
70.34	10.416
70.56	6.212
70.78	10.37
71	21.367
71.22	18.262
71.44	18.666
71.66	11.855
71.88	14.774
72.1	5.277
72.32	5.433
72.54	16.877
72.76	21.429
72.98	6.469
73.2	7.793
73.42	14.026
73.64	21.828
73.86	1.215
74.08	4.731
74.3	11.588
74.52	9.412
74.74	9.658
74.96	7.616
75.18	15.792
75.4	6.725
75.62	7.205
75.84	4.829
76.06	0.813
76.28	16.468
76.5	3.416
76.72	11.867
76.94	24.305
77.16	6.173
77.38	19.021
77.6	0.49
77.82	9.483
78.04	36.327
78.26	9.022
78.48	10.6
78.7	13.259
78.92	9.057
79.14	9.881
79.36	0.747
79.58	3.781
79.8	4.403
80.02	29.271
80.24	22.732
80.46	12.003
80.68	24.706
80.9	0.643
81.12	11.343
81.34	6.269
81.56	10.238
81.78	2.593
82	9.737
82.22	10.511
82.44	5.082
82.66	19.403
82.88	17.443
83.1	10.247
83.32	0.977
83.54	4.772
83.76	10.433
83.98	9.087
84.2	14.53
84.42	1.165
84.64	7.735
84.86	10.651
85.08	19.638
85.3	10.39
85.52	24.083
85.74	24.856
85.96	3.497
86.18	6.913
86.4	9.504
86.62	9.621
86.84	11.957
87.06	12.993
87.28	12.132
87.5	5.151
87.72	3.959
87.94	3.306
88.16	4.386
88.38	24.361
88.6	19.459
88.82	7.807
89.04	26.878
89.26	5.405
89.48	10.544
89.7	14.698
89.92	33.936
