Measurement: Powder, Xray Data XY Processed
Mineral: Hubnerite
Rruff sample: R050139
Ideal chemistry: Mn^2+^W^6+^O_4_
Locality: Pasto Bueno District, Pallasca Province, Ancash Department, Peru
Source: Dave Bunk Minerals
Description: Black tabular crystals associated with quartz
Diffraction sample description: Powder
Measured chemistry: (Mn^2+^_0.79_Fe^2+^_0.20_)W_1.00_O4
Cell parameters: a: 4.8118(3) b: 5.7491(1) c: 4.9899(4) alpha: 90. beta: 89.081(8) gamma: 90. volume: 138.02(1) crystal system: monoclinic
x	intensity
5	0
5.22	14.459
5.44	16.441
5.66	19.488
5.88	16.252
6.1	8.339
6.32	16.516
6.54	8.817
6.76	12.998
6.98	10.397
7.2	6.632
7.42	8.84
7.64	10.308
7.86	4.866
8.08	17.353
8.3	7.783
8.52	8.172
8.74	1.57
8.96	8.817
9.18	8.108
9.4	16.031
9.62	9.565
9.84	8.587
10.06	12.656
10.28	2.509
10.5	9.361
10.72	13.533
10.94	10.272
11.16	5.638
11.38	14.71
11.6	6.556
11.82	2.975
12.04	10.835
12.26	13.708
12.48	14.386
12.7	9.206
12.92	15.851
13.14	5.415
13.36	4.223
13.58	0.925
13.8	4.448
14.02	8.105
14.24	11.352
14.46	8.165
14.68	7.976
14.9	7.894
15.12	5.69
15.34	126.54
15.56	33.498
15.78	9.179
16	1.782
16.22	9.257
16.44	15.65
16.66	11.624
16.88	1.546
17.1	6.347
17.32	1.037
17.54	8.764
17.76	7.668
17.98	2.745
18.2	6.273
18.42	117.191
18.64	14.932
18.86	23.883
19.08	12.168
19.3	2.407
19.52	0.858
19.74	1.12
19.96	8.214
20.18	10.653
20.4	2.366
20.62	4.158
20.84	9.048
21.06	2.097
21.28	7.502
21.5	9.75
21.72	11.118
21.94	1.564
22.16	11.241
22.38	11.19
22.6	13.666
22.82	3.155
23.04	9.778
23.26	0.335
23.48	39.292
23.7	85.162
23.92	20.126
24.14	170.529
24.36	39.126
24.58	19.247
24.8	13.181
25.02	16.68
25.24	6.274
25.46	6.822
25.68	11.867
25.9	3.223
26.12	14.339
26.34	12.503
26.56	15.25
26.78	8.112
27	20.002
27.22	9.606
27.44	4.315
27.66	1.978
27.88	15.23
28.1	10.642
28.32	11.774
28.54	4.41
28.76	4.79
28.98	2.486
29.2	1.017
29.42	5.524
29.64	29.767
29.86	149.708
30.08	110.503
30.3	505.957
30.52	37.37
30.74	2.331
30.96	54.315
31.18	389.437
31.4	13.7
31.62	7.846
31.84	6.045
32.06	13.573
32.28	1.12
32.5	11.574
32.72	16.703
32.94	6.224
33.16	13.348
33.38	11.32
33.6	13.284
33.82	10.706
34.04	9.026
34.26	7.405
34.48	11.176
34.7	7.648
34.92	14.225
35.14	13.714
35.36	10.084
35.58	8.46
35.8	16.29
36.02	216.314
36.24	57.578
36.46	47.415
36.68	11.825
36.9	3.125
37.12	10.674
37.34	44.46
37.56	18.091
37.78	17.748
38	5.493
38.22	1.867
38.44	2.209
38.66	8.746
38.88	12.922
39.1	8.89
39.32	1.724
39.54	14.934
39.76	2.358
39.98	10.451
40.2	20.295
40.42	25.257
40.64	28.889
40.86	55.563
41.08	45.204
41.3	5.633
41.52	13.716
41.74	6.175
41.96	1.644
42.18	3.357
42.4	6.06
42.62	1.714
42.84	5.019
43.06	7.634
43.28	0.494
43.5	12.065
43.72	7.475
43.94	17.995
44.16	18.809
44.38	12.27
44.6	16.884
44.82	19.926
45.04	8.281
45.26	9.776
45.48	20.31
45.7	6.383
45.92	10.753
46.14	4.699
46.36	7.558
46.58	0.864
46.8	4.531
47.02	13.568
47.24	20.341
47.46	67.915
47.68	24.032
47.9	12.554
48.12	18.31
48.34	29.22
48.56	22.516
48.78	7.651
49	0.302
49.22	14.691
49.44	46.891
49.66	17.541
49.88	14.302
50.1	6.301
50.32	0.248
50.54	20.024
50.76	10.059
50.98	25.791
51.2	94.174
51.42	97.951
51.64	10.855
51.86	13.971
52.08	7.334
52.3	32.385
52.52	21.796
52.74	35.142
52.96	32.368
53.18	52.057
53.4	42.253
53.62	11.642
53.84	3.981
54.06	3.675
54.28	16.359
54.5	6.585
54.72	9.236
54.94	17.538
55.16	6.344
55.38	0.596
55.6	3.356
55.82	5.631
56.04	0.966
56.26	6.048
56.48	9.02
56.7	3.931
56.92	0.851
57.14	3.351
57.36	2.599
57.58	19.857
57.8	7.556
58.02	6.753
58.24	10.26
58.46	12.694
58.68	9.623
58.9	3.063
59.12	6.721
59.34	7.263
59.56	3.395
59.78	8.507
60	5.304
60.22	2.114
60.44	8.703
60.66	21.526
60.88	19.628
61.1	24.393
61.32	22.451
61.54	14.548
61.76	5.66
61.98	16.986
62.2	15.495
62.42	11.667
62.64	18.04
62.86	13.141
63.08	15.652
63.3	26.92
63.52	15.242
63.74	7.282
63.96	2.892
64.18	17.714
64.4	42.797
64.62	29.087
64.84	28.752
65.06	13.344
65.28	9.547
65.5	4.06
65.72	11.901
65.94	3.54
66.16	3.356
66.38	1.618
66.6	7.668
66.82	7.133
67.04	15
67.26	9.714
67.48	15.763
67.7	31.805
67.92	54.289
68.14	25.639
68.36	2.998
68.58	11.021
68.8	7.088
69.02	10.071
69.24	10.065
69.46	1.789
69.68	4.844
69.9	0.669
70.12	4.583
70.34	14.202
70.56	9.954
70.78	13.931
71	25.396
71.22	15.638
71.44	11.119
71.66	1.659
71.88	11.283
72.1	17.817
72.32	19.177
72.54	7.581
72.76	18.988
72.98	6.374
73.2	22.22
73.42	0.835
73.64	9.382
73.86	5.965
74.08	0.467
74.3	12.235
74.52	7.978
74.74	8.125
74.96	9.166
75.18	12.035
75.4	10.877
75.62	4.616
75.84	11.412
76.06	10.093
76.28	14.115
76.5	2.284
76.72	17.919
76.94	2.013
77.16	2.187
77.38	16.728
77.6	14.177
77.82	6.023
78.04	23.973
78.26	11.551
78.48	2.131
78.7	4.966
78.92	10.754
79.14	6.579
79.36	11.476
79.58	16.271
79.8	10.406
80.02	16.15
80.24	29.465
80.46	10.036
80.68	10.558
80.9	7.213
81.12	6.804
81.34	13.41
81.56	1.189
81.78	12.816
82	0.396
82.22	6.471
82.44	2.743
82.66	0.16
82.88	0.618
83.1	6.097
83.32	5.616
83.54	7.338
83.76	3.992
83.98	7.36
84.2	15.976
84.42	8.191
84.64	17.06
84.86	9.067
85.08	11.214
85.3	9.969
85.52	0.956
85.74	7.844
85.96	0.67
86.18	7.476
86.4	5.201
86.62	3.931
86.84	12.849
87.06	36.468
87.28	17.178
87.5	10.192
87.72	9.872
87.94	10.838
88.16	9.859
88.38	5.203
88.6	15.406
88.82	0.533
89.04	6.683
89.26	23.001
89.48	8.887
89.7	17.212
89.92	8.275
