Measurement: Powder, Xray Data XY Processed
Mineral: Hubnerite
Rruff sample: R050556
Ideal chemistry: Mn^2+^W^6+^O_4_
Locality: Pasto Bueno, Ancash Department, Peru
Source: Dave Bunk Minerals
Description: Blackish brown bladed crystal associated with quartz
Diffraction sample description: Powder
Measured chemistry: Mn^2+^_0.98_W_1.00_O_4_
Cell parameters: a: 4.8293(4) b: 5.7595(2) c: 4.9975(3) alpha: 90. beta: 88.859(9) gamma: 90. volume: 138.97(1) crystal system: monoclinic
x	intensity
5	0
5.22	9.067
5.44	5.548
5.66	0.884
5.88	3.694
6.1	10.421
6.32	7.676
6.54	21.748
6.76	16.733
6.98	31.646
7.2	7.788
7.42	8.43
7.64	3.463
7.86	1.564
8.08	14.863
8.3	6.04
8.52	3.459
8.74	9.296
8.96	12.216
9.18	7.049
9.4	5.823
9.62	5.419
9.84	8.257
10.06	8.215
10.28	18.019
10.5	4.671
10.72	6.466
10.94	1.028
11.16	7.032
11.38	3.853
11.6	2.166
11.82	11.01
12.04	5.691
12.26	6.954
12.48	0.12
12.7	5.186
12.92	11.158
13.14	2.848
13.36	14.077
13.58	12.08
13.8	2.175
14.02	2.086
14.24	14.805
14.46	2.074
14.68	7.706
14.9	0.906
15.12	14.783
15.34	156.956
15.56	34.06
15.78	10.103
16	1.087
16.22	10.973
16.44	9.858
16.66	7.955
16.88	5.028
17.1	1.988
17.32	14.506
17.54	3.399
17.76	0.086
17.98	12.952
18.2	9.991
18.42	106.756
18.64	27.92
18.86	5.113
19.08	6.445
19.3	14.718
19.52	4.193
19.74	11.415
19.96	5.572
20.18	8.767
20.4	4.735
20.62	1.604
20.84	6.775
21.06	7.032
21.28	8.57
21.5	2.544
21.72	5.827
21.94	11.814
22.16	7.347
22.38	8.643
22.6	6.002
22.82	6.443
23.04	2.072
23.26	7.156
23.48	44.437
23.7	64.378
23.92	30.919
24.14	110.194
24.36	17.978
24.58	1.962
24.8	0.517
25.02	14.218
25.24	3.519
25.46	9.289
25.68	2.146
25.9	9.246
26.12	11.671
26.34	1.085
26.56	7.133
26.78	8.878
27	4.489
27.22	11.026
27.44	15.624
27.66	5.929
27.88	7.014
28.1	0.551
28.32	6.255
28.54	15.073
28.76	11.68
28.98	7.763
29.2	1.735
29.42	9.218
29.64	15.232
29.86	315.76
30.08	75.826
30.3	420.167
30.52	38.471
30.74	4.942
30.96	77.037
31.18	206.388
31.4	3.586
31.62	4.318
31.84	2.098
32.06	3.726
32.28	0.753
32.5	1.528
32.72	14.243
32.94	10.885
33.16	10.255
33.38	15.764
33.6	3.562
33.82	10.572
34.04	7.523
34.26	7.903
34.48	7.35
34.7	3.718
34.92	10.785
35.14	1.805
35.36	5.839
35.58	6.314
35.8	21.802
36.02	182.366
36.24	33.026
36.46	22.444
36.68	2.333
36.9	1.954
37.12	6.587
37.34	35.943
37.56	5.895
37.78	0.73
38	12.159
38.22	0.769
38.44	8.67
38.66	2.179
38.88	9.599
39.1	10.302
39.32	6.077
39.54	7.756
39.76	8.682
39.98	9.23
40.2	21.178
40.42	25.902
40.64	17.313
40.86	100.684
41.08	17.664
41.3	2.833
41.52	10.349
41.74	5.568
41.96	12.528
42.18	14.393
42.4	9.246
42.62	0.72
42.84	2.58
43.06	9.653
43.28	1.938
43.5	22.646
43.72	1.009
43.94	8.621
44.16	24.172
44.38	9.522
44.6	10.011
44.82	25.241
45.04	11.548
45.26	12.928
45.48	11.895
45.7	12.557
45.92	0.94
46.14	14.154
46.36	9.176
46.58	9.029
46.8	0.369
47.02	9.795
47.24	29.288
47.46	70.886
47.68	14.155
47.9	7.013
48.12	13.167
48.34	23.865
48.56	10.807
48.78	7.859
49	6.351
49.22	45.725
49.44	26.616
49.66	19.64
49.88	11.097
50.1	6.754
50.32	2.878
50.54	3.855
50.76	7.802
50.98	16.429
51.2	228.01
51.42	72.167
51.64	25.599
51.86	6.816
52.08	18.092
52.3	24.983
52.52	22.447
52.74	10.735
52.96	42.41
53.18	56.019
53.4	44.574
53.62	0.872
53.84	1.693
54.06	2.734
54.28	1.76
54.5	18.733
54.72	18.838
54.94	15.426
55.16	15.374
55.38	16.407
55.6	6.303
55.82	10.675
56.04	8.766
56.26	12.589
56.48	12.627
56.7	7.468
56.92	16.62
57.14	12.566
57.36	10.738
57.58	8.134
57.8	7.904
58.02	8.479
58.24	0.362
58.46	1.57
58.68	7.24
58.9	7.156
59.12	2.686
59.34	1.53
59.56	6.689
59.78	6.652
60	1.615
60.22	0.082
60.44	9.829
60.66	12.361
60.88	2.232
61.1	13.283
61.32	40.001
61.54	23.472
61.76	3.765
61.98	10.388
62.2	4.125
62.42	8.657
62.64	0.09
62.86	6.162
63.08	36.401
63.3	20.904
63.52	0.707
63.74	18.937
63.96	11.457
64.18	7.79
64.4	45.702
64.62	37.968
64.84	29.396
65.06	0.526
65.28	1.647
65.5	4.989
65.72	3.496
65.94	5.95
66.16	5.162
66.38	5.179
66.6	11.559
66.82	1.192
67.04	0.092
67.26	3.475
67.48	19.319
67.7	62.484
67.92	45.541
68.14	25.238
68.36	22.697
68.58	2.977
68.8	2.008
69.02	10.98
69.24	10.034
69.46	6.952
69.68	10.839
69.9	16.438
70.12	4.015
70.34	16.563
70.56	13.211
70.78	29.706
71	29.063
71.22	28.496
71.44	0.919
71.66	6.78
71.88	12.563
72.1	11.941
72.32	12.37
72.54	7.642
72.76	4.886
72.98	17.744
73.2	7.343
73.42	13.158
73.64	14.171
73.86	12.396
74.08	7.754
74.3	5.995
74.52	11.051
74.74	12.283
74.96	11.741
75.18	14.695
75.4	11.653
75.62	4.619
75.84	13.476
76.06	14.27
76.28	6.758
76.5	9.389
76.72	7.858
76.94	0.635
77.16	4.01
77.38	17.966
77.6	7.302
77.82	16.042
78.04	9.378
78.26	5.015
78.48	18.677
78.7	7.302
78.92	0.874
79.14	10.496
79.36	15.204
79.58	11.606
79.8	25.364
80.02	13.756
80.24	10.753
80.46	7.76
80.68	2.372
80.9	6.899
81.12	10.682
81.34	1.532
81.56	8.4
81.78	6.149
82	9.094
82.22	3.719
82.44	3.019
82.66	4.283
82.88	6.361
83.1	2.885
83.32	1.072
83.54	1.523
83.76	3.164
83.98	14.322
84.2	11.868
84.42	21.261
84.64	15.081
84.86	2.285
85.08	8.713
85.3	12.964
85.52	3.796
85.74	1.345
85.96	0.513
86.18	11.374
86.4	6.565
86.62	20.278
86.84	30.964
87.06	26.082
87.28	25.14
87.5	22.472
87.72	20.806
87.94	12.644
88.16	8.5
88.38	4.052
88.6	3.439
88.82	5.842
89.04	6.825
89.26	25.749
89.48	10.8
89.7	7.076
89.92	18.47
