Measurement: Powder, Xray Data XY Processed
Mineral: Humite
Rruff sample: R040071
Ideal chemistry: Mg_7_(SiO_4_)_3_(F,OH)_2_
Locality: Tilly Foster mine, Brewster, Putnam County, New York, USA
Source: University of Arizona Mineral Museum
Description: Red crystals
Diffraction sample description: Powder
Measured chemistry: (Mg_0.91_Fe_0.09_)_7_(Si_0.99_Ti_0.01_O_4_)_3_(F_0.76_(OH)_0.24_)_2_
Cell parameters: a: 4.7416(3) b: 10.2688(3) c: 20.8746(6) alpha: 90. beta: 90. gamma: 90. volume: 1016.41(6) crystal system: orthorhombic
x	intensity
5	0
5.22	15.8
5.44	28.541
5.66	44.923
5.88	29.044
6.1	12.048
6.32	22.392
6.54	19.562
6.76	25.119
6.98	3.925
7.2	23.19
7.42	3.524
7.64	3.378
7.86	23.534
8.08	5.867
8.3	17.304
8.52	74.434
8.74	8.112
8.96	21.662
9.18	13.614
9.4	35.423
9.62	15.276
9.84	2.769
10.06	23.043
10.28	16.161
10.5	3.462
10.72	29.563
10.94	37.624
11.16	15.293
11.38	20.953
11.6	1.292
11.82	5.761
12.04	20.309
12.26	11.213
12.48	8.124
12.7	2.76
12.92	14.79
13.14	11.167
13.36	14.641
13.58	14.126
13.8	29.202
14.02	22.032
14.24	12.53
14.46	24.206
14.68	12.599
14.9	15.201
15.12	15.096
15.34	11.155
15.56	19.404
15.78	9.219
16	3.047
16.22	12.256
16.44	24.044
16.66	5.722
16.88	7.123
17.1	0.578
17.32	25.702
17.54	17.401
17.76	38.921
17.98	13.998
18.2	5.935
18.42	15.211
18.64	11.31
18.86	10.795
19.08	12.001
19.3	177.291
19.52	20.444
19.74	14.623
19.96	4.702
20.18	20.775
20.4	15.384
20.62	17.403
20.84	7.38
21.06	34.115
21.28	13.967
21.5	5.671
21.72	7.256
21.94	7.417
22.16	11.476
22.38	13.786
22.6	7.556
22.82	8.284
23.04	25.004
23.26	22.674
23.48	1.393
23.7	14.098
23.92	26.414
24.14	16.173
24.36	285.035
24.58	17.739
24.8	8.085
25.02	0.065
25.24	5.497
25.46	6.622
25.68	100.448
25.9	23.325
26.12	30.699
26.34	16.848
26.56	1.453
26.78	34.794
27	31.971
27.22	23.955
27.44	4.855
27.66	9.851
27.88	8.404
28.1	19.829
28.32	16.08
28.54	37.279
28.76	9.844
28.98	14.833
29.2	5.529
29.42	8.893
29.64	5.429
29.86	36.375
30.08	5.309
30.3	13.145
30.52	15.878
30.74	19.039
30.96	32.389
31.18	12.028
31.4	12.536
31.62	5.942
31.84	14.492
32.06	5.516
32.28	222.843
32.5	54.519
32.72	29.054
32.94	19.916
33.16	199.76
33.38	40.559
33.6	17.465
33.82	20.839
34.04	19.014
34.26	10.537
34.48	33.271
34.7	29.562
34.92	144.141
35.14	22.73
35.36	19.632
35.58	21.327
35.8	14.606
36.02	24.233
36.24	15.101
36.46	14.23
36.68	569.706
36.9	15.487
37.12	9.718
37.34	168.161
37.56	3.968
37.78	7.971
38	9.724
38.22	21.19
38.44	12.344
38.66	5.816
38.88	9.192
39.1	59.395
39.32	10.225
39.54	9.217
39.76	162.157
39.98	206.103
40.2	42.244
40.42	94.703
40.64	6.423
40.86	12.854
41.08	11.262
41.3	56.086
41.52	13.69
41.74	47.298
41.96	10.499
42.18	19.536
42.4	15.389
42.62	21.752
42.84	40.87
43.06	18.072
43.28	17.622
43.5	19.448
43.72	2.844
43.94	35.601
44.16	10.304
44.38	9.33
44.6	28.765
44.82	19.311
45.04	9.234
45.26	1.207
45.48	4.061
45.7	14.971
45.92	18.184
46.14	21.813
46.36	7.287
46.58	26.212
46.8	22.073
47.02	30.87
47.24	9.529
47.46	23.609
47.68	12.712
47.9	12.948
48.12	20.819
48.34	26.688
48.56	16.483
48.78	21.649
49	7.621
49.22	14.344
49.44	19.913
49.66	4.9
49.88	12.969
50.1	20.347
50.32	20.839
50.54	27.337
50.76	1.956
50.98	27.417
51.2	5.426
51.42	8.941
51.64	15.506
51.86	5.875
52.08	12.688
52.3	47.346
52.52	284.552
52.74	38.912
52.96	8.769
53.18	17.864
53.4	4.116
53.62	6.369
53.84	9.668
54.06	19.041
54.28	88.452
54.5	18.282
54.72	25.825
54.94	7.981
55.16	21.352
55.38	12.116
55.6	8.313
55.82	21.89
56.04	11.483
56.26	0.714
56.48	26.896
56.7	30.646
56.92	26.969
57.14	0.779
57.36	18.646
57.58	27.336
57.8	19.567
58.02	28.708
58.24	14.924
58.46	10.225
58.68	8.842
58.9	28.204
59.12	63.35
59.34	54.993
59.56	23.109
59.78	2.303
60	7.965
60.22	3.549
60.44	24.179
60.66	64.979
60.88	9.075
61.1	7.828
61.32	12.74
61.54	9.62
61.76	10.266
61.98	36.988
62.2	63.812
62.42	81.062
62.64	42.64
62.86	27.905
63.08	6.545
63.3	11.645
63.52	15.366
63.74	7.235
63.96	7.197
64.18	19.789
64.4	2.511
64.62	2.327
64.84	3.122
65.06	13.175
65.28	16.338
65.5	8.694
65.72	13.973
65.94	3.606
66.16	3.4
66.38	3.887
66.6	18.275
66.82	47.824
67.04	8.742
67.26	11.1
67.48	14.109
67.7	61.238
67.92	35.275
68.14	20.202
68.36	0.627
68.58	9.178
68.8	11.838
69.02	8.429
69.24	0.107
69.46	26.82
69.68	9.03
69.9	49.867
70.12	12.76
70.34	17.292
70.56	23.866
70.78	3.018
71	16.785
71.22	42.115
71.44	22.938
71.66	10.119
71.88	8.661
72.1	15.017
72.32	6.308
72.54	13.651
72.76	9.874
72.98	11.115
73.2	0.748
73.42	8.532
73.64	5.741
73.86	21.398
74.08	17.358
74.3	25.696
74.52	10.05
74.74	0.799
74.96	28.376
75.18	7.32
75.4	14.831
75.62	15.434
75.84	19.728
76.06	24.129
76.28	8.191
76.5	13.039
76.72	13.422
76.94	20.916
77.16	0.43
77.38	9.974
77.6	4.344
77.82	17.144
78.04	21.964
78.26	18.391
78.48	24.907
78.7	22.221
78.92	23.36
79.14	9.987
79.36	22.859
79.58	16.21
79.8	7.174
80.02	9.848
80.24	21.493
80.46	4.114
80.68	19.953
80.9	0.928
81.12	28.559
81.34	32.839
81.56	18.017
81.78	13.266
82	8.7
82.22	8.95
82.44	28.938
82.66	3.755
82.88	10.901
83.1	16.547
83.32	29.327
83.54	4.796
83.76	6.316
83.98	29.738
84.2	12.247
84.42	10.513
84.64	29.124
84.86	21.916
85.08	6.243
85.3	5.784
85.52	17.355
85.74	84.234
85.96	27.6
86.18	29.746
86.4	18.329
86.62	9.244
86.84	2.759
87.06	22.858
87.28	14.466
87.5	4.247
87.72	8.916
87.94	34.398
88.16	19.686
88.38	34.975
88.6	11.069
88.82	6.496
89.04	1.311
89.26	21.761
89.48	13.523
89.7	15.64
89.92	25.037
