Measurement: Powder, Xray Data XY Processed
Mineral: Humite
Rruff sample: R050665
Ideal chemistry: Mg_7_(SiO_4_)_3_(F,OH)_2_
Locality: Tilly Foster mine, Brewster, Putnam County, New York, USA
Source: University of Arizona Mineral Museum
Description: Granular aggregate of reddish-orange crystals
Diffraction sample description: Powder
Measured chemistry: (Mg_0.91_Fe^2+^_0.09_)_7_(Si_1.00_O_4_)_3_(F_0.56_(OH)_0.44_)_2_
Cell parameters: a: 4.7426(4) b: 10.2722(4) c: 20.881(1) alpha: 90. beta: 90. gamma: 90. volume: 1017.32(8) crystal system: orthorhombic
x	intensity
5	0
5.22	19.902
5.44	13.523
5.66	14.12
5.88	17.341
6.1	16.753
6.32	0.105
6.54	15.69
6.76	12.75
6.98	1.243
7.2	14.805
7.42	11.885
7.64	16.478
7.86	2.785
8.08	13.214
8.3	2.923
8.52	30.886
8.74	3.158
8.96	9.971
9.18	7.618
9.4	11.283
9.62	13.047
9.84	12.839
10.06	12.278
10.28	17.192
10.5	10.962
10.72	3.681
10.94	9.048
11.16	4.558
11.38	5.326
11.6	16.18
11.82	17.446
12.04	17.168
12.26	9.135
12.48	9.028
12.7	19.505
12.92	6.701
13.14	1.847
13.36	1.277
13.58	17.516
13.8	24.714
14.02	1.008
14.24	13.898
14.46	4.485
14.68	8.527
14.9	10.075
15.12	8.832
15.34	17.546
15.56	7.723
15.78	3.918
16	4.272
16.22	0.484
16.44	0.797
16.66	8.918
16.88	16.766
17.1	23.149
17.32	34.571
17.54	1.952
17.76	15.879
17.98	14.957
18.2	11.614
18.42	14.561
18.64	2.437
18.86	6.928
19.08	6.875
19.3	56.671
19.52	9.372
19.74	5.188
19.96	7.969
20.18	2.081
20.4	9.284
20.62	7.307
20.84	1.291
21.06	12.61
21.28	4.996
21.5	4.891
21.72	5.791
21.94	4.122
22.16	10.099
22.38	7.212
22.6	13.71
22.82	8.545
23.04	22.457
23.26	19.031
23.48	8.566
23.7	13.266
23.92	14.628
24.14	17.492
24.36	186.029
24.58	10.903
24.8	3.513
25.02	13.484
25.24	16.51
25.46	3.635
25.68	38.976
25.9	18.009
26.12	10.618
26.34	14.447
26.56	1.808
26.78	16.917
27	24.821
27.22	8.078
27.44	19.231
27.66	9.087
27.88	10.241
28.1	1.674
28.32	7.291
28.54	30.344
28.76	19.607
28.98	7.307
29.2	2.093
29.42	4.006
29.64	14.212
29.86	28.109
30.08	10.242
30.3	9.07
30.52	5.179
30.74	4.755
30.96	5.91
31.18	4.751
31.4	4.382
31.62	7.951
31.84	4.235
32.06	6.083
32.28	108.64
32.5	22.234
32.72	7.788
32.94	3.879
33.16	70.807
33.38	13.387
33.6	20.603
33.82	9.726
34.04	24.984
34.26	5.059
34.48	13.197
34.7	22.679
34.92	95.453
35.14	13.065
35.36	14.616
35.58	17.444
35.8	6.537
36.02	15.683
36.24	15.859
36.46	10.202
36.68	304.958
36.9	26.003
37.12	1.934
37.34	44.005
37.56	0.314
37.78	8.335
38	6.118
38.22	17.936
38.44	8.475
38.66	12.19
38.88	1.44
39.1	52.445
39.32	9.121
39.54	6.109
39.76	48.317
39.98	95.716
40.2	17.704
40.42	42.978
40.64	17.171
40.86	8.481
41.08	3.23
41.3	25.071
41.52	3.837
41.74	19.126
41.96	9.94
42.18	15.761
42.4	12.549
42.62	9.034
42.84	31.078
43.06	1.534
43.28	6.344
43.5	13.673
43.72	4.679
43.94	9.793
44.16	5.963
44.38	3.552
44.6	4.54
44.82	17.089
45.04	18.042
45.26	24.327
45.48	16.632
45.7	2.305
45.92	10.044
46.14	6.878
46.36	21.924
46.58	22.073
46.8	25.058
47.02	7.099
47.24	0.433
47.46	10.087
47.68	6.361
47.9	7.761
48.12	3.92
48.34	6.112
48.56	15.306
48.78	10.279
49	10.284
49.22	11.486
49.44	7.015
49.66	9.513
49.88	10.16
50.1	11.874
50.32	1.354
50.54	17.97
50.76	23.118
50.98	26.843
51.2	4.5
51.42	26.243
51.64	4.596
51.86	10.962
52.08	5.638
52.3	18.308
52.52	113.509
52.74	22.416
52.96	13.71
53.18	5.677
53.4	7.264
53.62	0.71
53.84	12.277
54.06	12.387
54.28	32.652
54.5	7.418
54.72	14.461
54.94	2.862
55.16	20.6
55.38	8.826
55.6	3.937
55.82	13.105
56.04	5.518
56.26	11.56
56.48	5.765
56.7	24.595
56.92	12.353
57.14	14.209
57.36	9.362
57.58	6.144
57.8	6.945
58.02	15.037
58.24	11.884
58.46	2.643
58.68	10.814
58.9	22.106
59.12	23.82
59.34	38.692
59.56	5.292
59.78	6.078
60	15.109
60.22	12.258
60.44	8.769
60.66	31.749
60.88	13.689
61.1	4.289
61.32	1.517
61.54	21.503
61.76	5.723
61.98	11.904
62.2	26.423
62.42	41.234
62.64	25.906
62.86	14.201
63.08	3.351
63.3	14.422
63.52	17.963
63.74	5.512
63.96	14.637
64.18	12.653
64.4	2.793
64.62	2.783
64.84	7.144
65.06	16.068
65.28	4.86
65.5	4.726
65.72	10.695
65.94	8.124
66.16	10.6
66.38	3.678
66.6	13.451
66.82	5.396
67.04	10.278
67.26	12.106
67.48	27.754
67.7	31.95
67.92	6.089
68.14	3.487
68.36	25.16
68.58	4.046
68.8	6.833
69.02	9.801
69.24	7.733
69.46	12.502
69.68	5.801
69.9	26.636
70.12	17.596
70.34	16.356
70.56	10.06
70.78	7.13
71	4.402
71.22	30.759
71.44	18.81
71.66	6.407
71.88	14.043
72.1	7.892
72.32	18.738
72.54	2.084
72.76	15.232
72.98	16.629
73.2	13.664
73.42	14.639
73.64	26.792
73.86	6.806
74.08	9.952
74.3	2.35
74.52	14.807
74.74	0.49
74.96	3.232
75.18	13.967
75.4	8.008
75.62	20.881
75.84	21.077
76.06	3.06
76.28	8.382
76.5	24.816
76.72	25.947
76.94	2.285
77.16	1.869
77.38	3.313
77.6	15.952
77.82	14.234
78.04	9.998
78.26	19.606
78.48	14.027
78.7	9.587
78.92	9.422
79.14	2.495
79.36	11.324
79.58	16.032
79.8	9.115
80.02	12.221
80.24	16.322
80.46	11.681
80.68	4.688
80.9	0.763
81.12	15.659
81.34	14.582
81.56	10.388
81.78	8.46
82	18.255
82.22	27.132
82.44	8.264
82.66	14.252
82.88	10.5
83.1	7.569
83.32	1.752
83.54	19.45
83.76	10.617
83.98	17.294
84.2	9.265
84.42	4.357
84.64	6.27
84.86	13.846
85.08	2.807
85.3	1.561
85.52	8.381
85.74	13.83
85.96	23.469
86.18	5.735
86.4	11.174
86.62	9.055
86.84	10.254
87.06	10.963
87.28	2.067
87.5	3.768
87.72	12.246
87.94	7.559
88.16	5.258
88.38	11.459
88.6	11.536
88.82	12.993
89.04	15.346
89.26	2.221
89.48	1.046
89.7	11.238
89.92	2.301
