Measurement: Powder, Xray Data XY Processed
Mineral: Huntite
Rruff sample: R040126
Ideal chemistry: CaMg_3_(CO_3_)_4_
Locality: Crestmore Quarry, Riverside County, California, USA
Source: University of Arizona Mineral Museum
Description: White fine-grained massive
Diffraction sample description: Powder
Measured chemistry: Ca_0.97_Mg_3.02_(CO_3_)_4_
Cell parameters: a: 9.4962(2) b: 9.4962(2) c: 7.8142(3) alpha: 90. beta: 90. gamma: 120. volume: 610.27(3) crystal system: hexagonal
x	intensity
5	0
5.22	3.55288
5.44	2.978
5.66	11.4512
5.88	4.77968
6.1	7.22222
6.32	9.07709
6.54	11.4961
6.76	13.3314
6.98	11.9112
7.2	5.94681
7.42	4.59
7.64	3.3221
7.86	9.97036
8.08	7.8456
8.3	1.38066
8.52	7.83381
8.74	0.557181
8.96	12.721
9.18	8.86527
9.4	2.8412
9.62	5.93438
9.84	6.99094
10.06	3.05152
10.28	6.03625
10.5	4.14812
10.72	6.97852
10.94	10.7442
11.16	8.79881
11.38	5.03586
11.6	6.10025
11.82	7.19149
12.04	3.17873
12.26	2.14214
12.48	3.22598
12.7	6.21013
12.92	7.03631
13.14	2.3409
13.36	5.36021
13.58	1.69542
13.8	2.33764
14.02	0.275496
14.24	2.30448
14.46	5.43453
14.68	5.57745
14.9	3.84235
15.12	6.25433
15.34	6.5988
15.56	15.7851
15.78	12.1191
16	0.487223
16.22	10.498
16.44	9.76302
16.66	5.78668
16.88	7.79093
17.1	4.77491
17.32	2.6699
17.54	9.325
17.76	2.18486
17.98	5.04655
18.2	0.758446
18.42	1.47651
18.64	8.34987
18.86	4.26073
19.08	7.30592
19.3	8.45284
19.52	1.53829
19.74	0.384984
19.96	2.59165
20.18	1.11968
20.4	7.04561
20.62	10.0533
20.84	13.2339
21.06	5.27757
21.28	9.2423
21.5	4.18429
21.72	3.21587
21.94	5.11121
22.16	5.39957
22.38	3.17073
22.6	4.76897
22.82	8.85297
23.04	9.85911
23.26	1.5883
23.48	0.584423
23.7	6.27567
23.92	11.1496
24.14	5.79569
24.36	14.6899
24.58	17.3718
24.8	5.39357
25.02	7.47532
25.24	16.2049
25.46	0.013952
25.68	8.02959
25.9	5.06489
26.12	9.17273
26.34	6.22349
26.56	0.180462
26.78	0.936063
27	3.80085
27.22	2.68983
27.44	13.5053
27.66	2.53084
27.88	2.47327
28.1	3.70483
28.32	13.6889
28.54	20.706
28.76	0.487446
28.98	3.19068
29.2	3.6236
29.42	11.8703
29.64	2.94961
29.86	2.11066
30.08	4.44293
30.3	1.20383
30.52	10.3432
30.74	22.0212
30.96	288.476
31.18	41.5389
31.4	77.8511
31.62	1411.47
31.84	53.515
32.06	18.1677
32.28	1.68328
32.5	15.2609
32.72	23.3296
32.94	2.85987
33.16	3.97088
33.38	3.06295
33.6	2.76366
33.82	3.72695
34.04	14.5598
34.26	21.4834
34.48	112.75
34.7	4.85273
34.92	9.07575
35.14	8.50867
35.36	1.68026
35.58	9.35226
35.8	4.26741
36.02	3.14374
36.24	9.96378
36.46	5.8052
36.68	8.01529
36.9	50.7703
37.12	32.3501
37.34	9.64366
37.56	5.48599
37.78	22.8065
38	68.1089
38.22	7.36546
38.44	0.332255
38.66	9.17321
38.88	4.53098
39.1	10.174
39.32	17.4202
39.54	49.6907
39.76	12.5191
39.98	10.2465
40.2	2.96462
40.42	2.9998
40.64	4.25417
40.86	1.31268
41.08	15.1227
41.3	55.3918
41.52	5.60131
41.74	0.470734
41.96	0.646296
42.18	2.76827
42.4	0.963641
42.62	7.05144
42.84	15.2135
43.06	9.19973
43.28	6.37517
43.5	4.25732
43.72	6.07608
43.94	6.41387
44.16	1.23621
44.38	0.165504
44.6	3.3697
44.82	2.8215
45.04	1.39843
45.26	6.89267
45.48	15.344
45.7	58.8625
45.92	51.6
46.14	141.06
46.36	17.1488
46.58	10.086
46.8	5.29014
47.02	0.442678
47.24	2.83242
47.46	0.797403
47.68	7.77918
47.9	20.9352
48.12	10.5208
48.34	7.41872
48.56	5.9043
48.78	2.77161
49	7.59118
49.22	0.402616
49.44	10.2071
49.66	32.2215
49.88	17.7583
50.1	27.1681
50.32	9.11419
50.54	1.54834
50.76	1.13585
50.98	26.0192
51.2	3.96903
51.42	4.09201
51.64	31.4023
51.86	113.816
52.08	152.173
52.3	49.5717
52.52	0.72903
52.74	4.07551
52.96	0.415627
53.18	9.06585
53.4	8.63638
53.62	3.66004
53.84	12.0082
54.06	12.4114
54.28	6.46903
54.5	8.52712
54.72	1.84636
54.94	0.087992
55.16	4.34289
55.38	5.489
55.6	9.59227
55.82	3.65476
56.04	3.18987
56.26	4.02965
56.48	4.80204
56.7	1.58301
56.92	0.65254
57.14	5.08524
57.36	1.89732
57.58	1.68837
57.8	0.289824
58.02	5.55596
58.24	82.6997
58.46	37.8723
58.68	4.55954
58.9	8.69824
59.12	6.0858
59.34	11.3129
59.56	4.43917
59.78	8.49475
60	14.4436
60.22	6.41882
60.44	7.13687
60.66	15.196
60.88	15.6442
61.1	17.4617
61.32	1.89498
61.54	4.62301
61.76	6.28454
61.98	2.99572
62.2	2.82589
62.42	6.88464
62.64	34.5914
62.86	43.645
63.08	18.0682
63.3	3.86693
63.52	0.034139
63.74	3.06658
63.96	0.714985
64.18	20.967
64.4	16.3852
64.62	13.7831
64.84	8.74473
65.06	2.26691
65.28	0.002979
65.5	0.247935
65.72	0.441606
65.94	26.4373
66.16	11.2791
66.38	1.14162
66.6	3.18529
66.82	3.06423
67.04	15.759
67.26	1.70267
67.48	2.62765
67.7	4.66569
67.92	4.77192
68.14	11.604
68.36	9.63126
68.58	9.67824
68.8	6.23756
69.02	6.36437
69.24	3.64972
69.46	11.0131
69.68	2.15363
69.9	2.43576
70.12	4.34182
70.34	2.52452
70.56	9.5983
70.78	12.6299
71	5.77702
71.22	1.7354
71.44	3.67981
71.66	20.4672
71.88	9.26071
72.1	3.42238
72.32	8.42897
72.54	40.371
72.76	23.4332
72.98	4.63352
73.2	0.159194
73.42	7.0825
73.64	3.43124
73.86	4.95816
74.08	5.41232
74.3	6.47669
74.52	3.47746
74.74	4.29783
74.96	7.54817
75.18	2.55526
75.4	4.45031
75.62	12.3737
75.84	8.17911
76.06	6.82759
76.28	1.64427
76.5	8.58401
76.72	3.71861
76.94	17.2989
77.16	14.3552
77.38	1.2878
77.6	9.36679
77.82	1.45465
78.04	6.66712
78.26	5.73486
78.48	1.88897
78.7	15.2087
78.92	6.17135
79.14	7.06722
79.36	5.69561
79.58	6.76622
79.8	0.249079
80.02	5.67687
80.24	5.78387
80.46	10.9209
80.68	8.89039
80.9	2.76864
81.12	7.40789
81.34	11.8056
81.56	6.76704
81.78	7.57146
82	6.60367
82.22	1.66572
82.44	3.18363
82.66	2.68979
82.88	0.018576
83.1	10.2033
83.32	8.28205
83.54	9.43935
83.76	10.0576
83.98	6.03742
84.2	5.29582
84.42	0.390878
84.64	5.28786
84.86	10.1492
85.08	5.01023
85.3	1.56338
85.52	5.34621
85.74	4.36229
85.96	2.27543
86.18	7.39839
86.4	34.6127
86.62	12.3814
86.84	3.47074
87.06	5.6435
87.28	3.09709
87.5	2.23946
87.72	9.37667
87.94	8.54886
88.16	1.64538
88.38	2.24085
88.6	4.71617
88.82	3.66761
89.04	7.70148
89.26	6.42102
89.48	14.6177
89.7	3.25734
89.92	1.66439
