Measurement: Powder, Xray Data XY Processed
Mineral: Hydroniumjarosite
Rruff sample: R060402
Ideal chemistry: (H_3_O)Fe^3+^_3_(S^6+^O_4_)_2_(OH)_6_
Locality: Cyprus, Greece
Source: American Museum of Natural History
Description: Tan colored consolidated powder
Diffraction sample description: Powder
Cell parameters: a: 7.3153(9) b: 7.3153(9) c: 16.626(2) alpha: 90 beta: 90 gamma: 120 volume: 770.5(0) crystal system: hexagonal
x	intensity
5	0
5.22	24.4286
5.44	26.3768
5.66	9.54581
5.88	18.9018
6.1	34.4252
6.32	32.6621
6.54	29.1164
6.76	13.6482
6.98	21.4079
7.2	18.5898
7.42	40.0636
7.64	33.1344
7.86	6.48943
8.08	7.0186
8.3	21.1763
8.52	6.93385
8.74	16.1242
8.96	12.5116
9.18	9.62306
9.4	21.8255
9.62	16.2982
9.84	20.6858
10.06	9.7447
10.28	17.9469
10.5	1.59959
10.72	27.3488
10.94	2.15975
11.16	10.0996
11.38	2.2076
11.6	11.9053
11.82	35.1319
12.04	29.4878
12.26	9.3371
12.48	5.96251
12.7	20.7891
12.92	11.3336
13.14	5.63287
13.36	7.91386
13.58	26.984
13.8	12.1611
14.02	7.2393
14.24	19.4814
14.46	26.2313
14.68	13.1023
14.9	24.0019
15.12	0.628014
15.34	15.7418
15.56	19.6809
15.78	21.169
16	144.74
16.22	30.9757
16.44	13.6931
16.66	22.5907
16.88	15.0029
17.1	39.8476
17.32	34.2648
17.54	89.0168
17.76	37.0896
17.98	19.4596
18.2	17.479
18.42	9.86529
18.64	14.541
18.86	11.3187
19.08	14.5523
19.3	20.8686
19.52	18.8798
19.74	25.3644
19.96	25.7624
20.18	5.82892
20.4	11.2328
20.62	19.1434
20.84	23.0019
21.06	27.5252
21.28	9.81488
21.5	4.84908
21.72	18.5991
21.94	26.5833
22.16	1.02974
22.38	21.1893
22.6	22.8012
22.82	13.2751
23.04	34.1832
23.26	8.35037
23.48	17.8531
23.7	34.5647
23.92	11.4988
24.14	9.15933
24.36	39.9542
24.58	16.4019
24.8	9.11698
25.02	10.3409
25.24	16.6401
25.46	33.307
25.68	15.3573
25.9	21.4917
26.12	13.2368
26.34	3.68903
26.56	8.43289
26.78	12.8649
27	8.73773
27.22	21.4849
27.44	20.1224
27.66	13.7126
27.88	15.211
28.1	10.236
28.32	15.2444
28.54	14.0385
28.76	134.742
28.98	24.4125
29.2	75.0051
29.42	21.5716
29.64	9.26479
29.86	12.0231
30.08	28.0875
30.3	23.354
30.52	8.19158
30.74	33.9638
30.96	8.93005
31.18	15.1203
31.4	20.7613
31.62	1.45985
31.84	15.5304
32.06	9.87726
32.28	36.4756
32.5	15.2639
32.72	7.39682
32.94	15.0336
33.16	15.8505
33.38	1.09152
33.6	14.7869
33.82	32.9514
34.04	1.4388
34.26	14.1061
34.48	8.60136
34.7	2.8112
34.92	16.7803
35.14	4.14188
35.36	2.4502
35.58	41.3041
35.8	8.82675
36.02	4.93345
36.24	34.1996
36.46	20.0974
36.68	42.6241
36.9	6.87918
37.12	7.7349
37.34	21.1244
37.56	16.8848
37.78	11.1445
38	13.9529
38.22	36.3587
38.44	22.7086
38.66	30.971
38.88	0.741585
39.1	8.15681
39.32	23.7275
39.54	6.25118
39.76	16.1054
39.98	18.2349
40.2	18.2776
40.42	23.8617
40.64	52.8319
40.86	21.9187
41.08	24.0021
41.3	2.51673
41.52	28.8185
41.74	13.4622
41.96	19.1264
42.18	11.4147
42.4	18.3199
42.62	13.665
42.84	32.4836
43.06	19.7192
43.28	3.1239
43.5	9.29385
43.72	26.2273
43.94	29.041
44.16	4.94955
44.38	15.7256
44.6	4.07659
44.82	20.1465
45.04	24.7209
45.26	13.8469
45.48	6.05758
45.7	23.0457
45.92	45.5427
46.14	19.926
46.36	7.20573
46.58	14.4848
46.8	15.2324
47.02	6.91412
47.24	13.6711
47.46	12.4451
47.68	36.9435
47.9	34.492
48.12	14.7114
48.34	22.4955
48.56	17.4506
48.78	12.6338
49	15.6506
49.22	12.5749
49.44	15.2988
49.66	14.6251
49.88	64.6129
50.1	24.1378
50.32	8.38568
50.54	8.34409
50.76	15.8274
50.98	35.9336
51.2	30.1008
51.42	32.9995
51.64	9.91718
51.86	7.46634
52.08	15.7169
52.3	12.0347
52.52	1.25231
52.74	28.0285
52.96	29.0105
53.18	5.58639
53.4	25.8619
53.62	6.4272
53.84	5.58195
54.06	12.3619
54.28	29.9011
54.5	6.30561
54.72	13.7803
54.94	30.8504
55.16	11.2352
55.38	22.6838
55.6	21.3557
55.82	34.7608
56.04	20.5101
56.26	19.1437
56.48	13.3172
56.7	5.80344
56.92	3.94444
57.14	0.222908
57.36	16.1584
57.58	1.12761
57.8	21.2837
58.02	6.75468
58.24	18.5919
58.46	31.7297
58.68	37.2462
58.9	15.4248
59.12	29.0976
59.34	35.2347
59.56	4.17551
59.78	23.8057
60	0.848137
60.22	19.6929
60.44	11.1719
60.66	18.3601
60.88	12.3672
61.1	18.5849
61.32	22.3399
61.54	30.2249
61.76	21.5527
61.98	24.3793
62.2	5.6969
62.42	15.5101
62.64	1.24711
62.86	22.403
63.08	49.5163
63.3	24.3198
63.52	0.850914
63.74	22.4901
63.96	3.02757
64.18	20.4555
64.4	16.9895
64.62	6.44781
64.84	28.4969
65.06	24.6775
65.28	39.2216
65.5	12.0966
65.72	2.26338
65.94	21.6538
66.16	7.2586
66.38	30.5946
66.6	5.08848
66.82	25.5366
67.04	15.7536
67.26	9.95776
67.48	35.386
67.7	14.0544
67.92	33.3381
68.14	23.3383
68.36	36.5436
68.58	8.64738
68.8	21.4305
69.02	21.1308
69.24	24.5968
69.46	21.4053
69.68	28.205
69.9	21.2361
70.12	20.0552
70.34	21.0434
70.56	5.52734
70.78	20.5608
71	19.2963
71.22	17.0583
71.44	3.0112
71.66	21.5419
71.88	12.4597
72.1	12.3824
72.32	12.8227
72.54	17.5709
72.76	13.4722
72.98	11.0237
73.2	25.131
73.42	14.3163
73.64	17.6835
73.86	0.345009
74.08	6.2907
74.3	11.4553
74.52	12.9646
74.74	22.074
74.96	28.4731
75.18	18.6374
75.4	17.9434
75.62	21.0196
75.84	14.9295
76.06	13.5646
76.28	1.79053
76.5	21.5329
76.72	3.50112
76.94	7.71276
77.16	14.459
77.38	0.434776
77.6	5.68222
77.82	23.2908
78.04	24.7379
78.26	18.4736
78.48	34.2568
78.7	32.1337
78.92	10.1698
79.14	8.81342
79.36	24.3604
79.58	12.6915
79.8	23.4229
80.02	18.3833
80.24	22.3031
80.46	11.7334
80.68	20.4077
80.9	14.7629
81.12	2.19582
81.34	17.5907
81.56	16.3328
81.78	18.4423
82	4.39587
82.22	25.5337
82.44	20.0939
82.66	19.744
82.88	20.8091
83.1	22.8517
83.32	13.6059
83.54	19.5572
83.76	2.07991
83.98	17.6753
84.2	13.1476
84.42	6.71762
84.64	7.28503
84.86	4.37781
85.08	10.9046
85.3	8.22936
85.52	16.4537
85.74	4.88308
85.96	19.9278
86.18	0.122223
86.4	25.4338
86.62	20.3286
86.84	14.5898
87.06	2.80313
87.28	20.5166
87.5	20.3571
87.72	9.55294
87.94	16.1903
88.16	14.7832
88.38	33.282
88.6	16.0381
88.82	15.8641
89.04	16.0397
89.26	13.3942
89.48	21.299
89.7	37.8901
89.92	18.6638
