Measurement: Powder, Xray Data XY Processed
Mineral: Hydroxylherderite
Rruff sample: R050518
Ideal chemistry: CaBe(P^5+^O_4_)(OH)
Locality: Mt. Apatite, Auburn, Maine, USA
Source: University of Arizona Mineral Museum
Description: Colorless prismatic crystals
Diffraction sample description: Powder
Measured chemistry: Ca_1.00_Be_1.00_(P_1.00_O_4_)((OH)_0.75_F_0.25_)_Î£=1_
Cell parameters: a: 9.7736(2) b: 7.6665(2) c: 4.7921(7) alpha: 90. beta: 90.062(8) gamma: 90. volume: 359.07(5) crystal system: monoclinic
x	intensity
5	0
5.22	7.874
5.44	6.936
5.66	3.024
5.88	5.473
6.1	16.054
6.32	6.661
6.54	6.437
6.76	13.815
6.98	6.355
7.2	5.154
7.42	9.764
7.64	4.176
7.86	3.667
8.08	2.069
8.3	6.429
8.52	3.748
8.74	5.373
8.96	17.371
9.18	4.428
9.4	8.725
9.62	2.681
9.84	0.855
10.06	6.088
10.28	2.357
10.5	3.548
10.72	5.727
10.94	5.899
11.16	1.721
11.38	9.917
11.6	7.258
11.82	4.218
12.04	9.417
12.26	7.598
12.48	10.66
12.7	0.608
12.92	11.672
13.14	2.731
13.36	3.809
13.58	0.145
13.8	4.871
14.02	0.799
14.24	3.867
14.46	1.94
14.68	18.993
14.9	10.11
15.12	3.143
15.34	2.166
15.56	5.222
15.78	1.24
16	3.259
16.22	3.313
16.44	4.308
16.66	1.426
16.88	1.312
17.1	8.143
17.32	2.055
17.54	0.018
17.76	3.127
17.98	3.226
18.2	5.232
18.42	7.412
18.64	14.379
18.86	6.386
19.08	2.266
19.3	3.381
19.52	7.487
19.74	2.44
19.96	1.383
20.18	4.181
20.4	4.006
20.62	6.161
20.84	2.943
21.06	4.795
21.28	3.884
21.5	0.095
21.72	3.874
21.94	6.863
22.16	8.802
22.38	1.774
22.6	0.747
22.82	2.734
23.04	0.48
23.26	29.516
23.48	6.861
23.7	29.031
23.92	12.052
24.14	4.044
24.36	13.82
24.58	2.762
24.8	1.344
25.02	1.458
25.24	7.413
25.46	2.269
25.68	5.106
25.9	14.606
26.12	71.044
26.34	7.002
26.56	6.775
26.78	32.59
27	1.557
27.22	1.726
27.44	2.03
27.66	0.751
27.88	9.489
28.1	13.809
28.32	12.324
28.54	113.581
28.76	39.09
28.98	3.056
29.2	3.12
29.42	8.578
29.64	47.72
29.86	71.221
30.08	6.449
30.3	8.717
30.52	5.437
30.74	3.545
30.96	8.852
31.18	20.22
31.4	50.608
31.62	5.857
31.84	5.823
32.06	1.106
32.28	2.502
32.5	0.832
32.72	4.154
32.94	4.351
33.16	3.607
33.38	1.846
33.6	6.667
33.82	3.668
34.04	4.603
34.26	2.34
34.48	6.06
34.7	3.803
34.92	5.716
35.14	17.512
35.36	42.33
35.58	9.181
35.8	6.94
36.02	5.939
36.24	8.127
36.46	10.137
36.68	8.258
36.9	27.531
37.12	4.57
37.34	1.666
37.56	9.654
37.78	5.582
38	4.902
38.22	1.049
38.44	5.672
38.66	27.082
38.88	3.641
39.1	3.8
39.32	1.322
39.54	8.563
39.76	2.852
39.98	34.409
40.2	4.088
40.42	5.182
40.64	9.067
40.86	15.314
41.08	64.76
41.3	9.532
41.52	44.891
41.74	4.776
41.96	19.402
42.18	6.985
42.4	7.725
42.62	4.383
42.84	5.901
43.06	2.948
43.28	15.148
43.5	3.869
43.72	5.026
43.94	1.738
44.16	7.63
44.38	4.606
44.6	12.623
44.82	0.557
45.04	0.327
45.26	5.511
45.48	7.021
45.7	31.13
45.92	12.186
46.14	1.02
46.36	0.971
46.58	2.11
46.8	1.217
47.02	3.098
47.24	2.987
47.46	18.846
47.68	9.515
47.9	2.154
48.12	9.032
48.34	8.273
48.56	21.454
48.78	11.676
49	3.723
49.22	8.886
49.44	3.067
49.66	0.693
49.88	4.399
50.1	4.371
50.32	7.187
50.54	2.112
50.76	1.763
50.98	0.466
51.2	27.328
51.42	20.213
51.64	10.08
51.86	12.153
52.08	6.01
52.3	3.007
52.52	9.111
52.74	11.298
52.96	5.453
53.18	5.154
53.4	5.211
53.62	5.234
53.84	0.765
54.06	4.988
54.28	1.313
54.5	9.483
54.72	1.278
54.94	23.099
55.16	13.877
55.38	13.477
55.6	10.037
55.82	30.234
56.04	16.567
56.26	2.849
56.48	9.066
56.7	4.426
56.92	0.863
57.14	2.176
57.36	1.355
57.58	5.558
57.8	1.267
58.02	1.807
58.24	1.473
58.46	0.161
58.68	2.276
58.9	5.177
59.12	18.978
59.34	10.884
59.56	5.888
59.78	2.987
60	15.945
60.22	8.995
60.44	3.176
60.66	0.503
60.88	1.488
61.1	7.349
61.32	7.401
61.54	10.545
61.76	4.553
61.98	11.432
62.2	8.468
62.42	8.621
62.64	7.508
62.86	4.157
63.08	9.116
63.3	2.08
63.52	5.11
63.74	10.087
63.96	13.019
64.18	0.871
64.4	1.943
64.62	2.165
64.84	5.228
65.06	13.318
65.28	1.403
65.5	2.379
65.72	1.514
65.94	3.572
66.16	9.698
66.38	15.784
66.6	10.93
66.82	5.964
67.04	2.772
67.26	2.742
67.48	3.783
67.7	3.902
67.92	1.911
68.14	1.884
68.36	6.846
68.58	3.886
68.8	2.919
69.02	4.787
69.24	7.757
69.46	4.672
69.68	6.597
69.9	0.59
70.12	1.477
70.34	2.403
70.56	1.684
70.78	2.283
71	3.247
71.22	2.215
71.44	3.282
71.66	2.31
71.88	4.34
72.1	5.602
72.32	3.91
72.54	1.968
72.76	1.065
72.98	0.119
73.2	4.045
73.42	5.966
73.64	1.809
73.86	3.628
74.08	4.472
74.3	3.29
74.52	6.966
74.74	5.507
74.96	7.352
75.18	7.128
75.4	5.069
75.62	1.945
75.84	2.793
76.06	6.749
76.28	3.023
76.5	4.052
76.72	8.983
76.94	5.153
77.16	6.14
77.38	0.651
77.6	7.512
77.82	3.587
78.04	1.973
78.26	3.113
78.48	7.14
78.7	2.932
78.92	0.12
79.14	3.882
79.36	6.763
79.58	1.814
79.8	10.568
80.02	6.431
80.24	10.28
80.46	8.097
80.68	3.162
80.9	1.164
81.12	3.354
81.34	2.56
81.56	5.801
81.78	0.843
82	2.058
82.22	1.63
82.44	6.69
82.66	0.789
82.88	5.72
83.1	0.368
83.32	6.699
83.54	4.57
83.76	3.529
83.98	5.324
84.2	7.347
84.42	3.192
84.64	2.043
84.86	2.868
85.08	7.858
85.3	7.072
85.52	4.208
85.74	6.282
85.96	4.322
86.18	8.383
86.4	2.658
86.62	2.598
86.84	0.363
87.06	5.705
87.28	0.744
87.5	4.782
87.72	3.593
87.94	1.444
88.16	2.414
88.38	5.401
88.6	2.42
88.82	5.393
89.04	8.446
89.26	3.343
89.48	10.541
89.7	4.983
89.92	4.818
