Measurement: Powder, Xray Data XY Processed
Mineral: Hydroxylherderite
Rruff sample: R050520
Ideal chemistry: CaBe(P^5+^O_4_)(OH)
Locality: Virgem da Lapa, Minas Gerais, Brazil
Source: University of Arizona Mineral Museum
Description: White massive associated with a dark green tourmaline
Diffraction sample description: Powder
Measured chemistry: Ca_1.00_Be_1.00_(P_1.00_O_4_)((OH)_0.53_F_0.47_)_Î£=1_ ; Be not measured but estimated by difference and charge balance
Cell parameters: a: 9.7680(4) b: 7.6681(2) c: 4.7911(8) alpha: 90. beta: 90.11(2) gamma: 90. volume: 358.87(6) crystal system: monoclinic
x	intensity
5	0
5.22	11.679
5.44	5.882
5.66	3.935
5.88	4.363
6.1	9.237
6.32	12.19
6.54	9.999
6.76	18.968
6.98	15.032
7.2	7.91
7.42	10.896
7.64	4.693
7.86	2.493
8.08	8.31
8.3	6.089
8.52	9.446
8.74	6.806
8.96	7.931
9.18	9.26
9.4	0.474
9.62	7.794
9.84	9.002
10.06	3.362
10.28	8.793
10.5	3.013
10.72	4.156
10.94	4.375
11.16	7.321
11.38	7.527
11.6	2.472
11.82	3.786
12.04	3.008
12.26	3.259
12.48	8.359
12.7	2.426
12.92	0.751
13.14	4.812
13.36	3.943
13.58	4.032
13.8	1.095
14.02	3.157
14.24	2.125
14.46	3.262
14.68	38.13
14.9	4.926
15.12	3.981
15.34	3.901
15.56	2.923
15.78	3.943
16	2.016
16.22	0.06
16.44	0.679
16.66	4.538
16.88	3.49
17.1	4.544
17.32	0.54
17.54	1.548
17.76	3.581
17.98	5.652
18.2	8.673
18.42	5.701
18.64	9.831
18.86	3.863
19.08	6.682
19.3	5.748
19.52	6.777
19.74	1.204
19.96	3.737
20.18	2.762
20.4	6.639
20.62	0.461
20.84	1.417
21.06	2.233
21.28	1.013
21.5	4.838
21.72	5.906
21.94	13.797
22.16	0.712
22.38	3.842
22.6	3.664
22.82	0.313
23.04	2.705
23.26	32.913
23.48	0.018
23.7	38.062
23.92	8.216
24.14	5.089
24.36	3.235
24.58	1.242
24.8	2.066
25.02	7.044
25.24	3.044
25.46	4.929
25.68	5.806
25.9	12.726
26.12	116.884
26.34	13.345
26.56	0.267
26.78	3.262
27	3.176
27.22	1.097
27.44	2.051
27.66	6.709
27.88	4.434
28.1	2.356
28.32	10.153
28.54	134.5
28.76	31.86
28.98	11.553
29.2	2.285
29.42	6.387
29.64	53.306
29.86	169.392
30.08	11.483
30.3	2.639
30.52	1.644
30.74	0.762
30.96	7.168
31.18	29.679
31.4	53.001
31.62	4.432
31.84	8.53
32.06	2.844
32.28	8.03
32.5	7.238
32.72	5.411
32.94	0.804
33.16	0.049
33.38	4.122
33.6	4.832
33.82	1.924
34.04	4.736
34.26	6.587
34.48	4.433
34.7	2.341
34.92	1.489
35.14	10.376
35.36	42.962
35.58	12.686
35.8	1.517
36.02	4.766
36.24	4.584
36.46	6.561
36.68	0.353
36.9	19.774
37.12	8.971
37.34	1.02
37.56	9.061
37.78	2.197
38	2.548
38.22	1.912
38.44	4.538
38.66	13.31
38.88	5.034
39.1	0.326
39.32	0.488
39.54	5.803
39.76	14.042
39.98	48.557
40.2	6.965
40.42	5.347
40.64	21.666
40.86	10.47
41.08	56.511
41.3	5.127
41.52	11.597
41.74	5.804
41.96	12.409
42.18	2.897
42.4	5.609
42.62	5.211
42.84	0.377
43.06	1.922
43.28	11.163
43.5	1.714
43.72	7.715
43.94	1.749
44.16	7.55
44.38	2.342
44.6	10.285
44.82	1.016
45.04	5.823
45.26	0.005
45.48	10.187
45.7	37.313
45.92	7.533
46.14	0.469
46.36	1.576
46.58	0.195
46.8	0.92
47.02	2.927
47.24	2.026
47.46	13.961
47.68	2.739
47.9	1.627
48.12	7.512
48.34	8.588
48.56	19.757
48.78	39.809
49	7.651
49.22	1.911
49.44	5.243
49.66	3.24
49.88	3.67
50.1	3.712
50.32	5.76
50.54	4.696
50.76	0.421
50.98	1.315
51.2	29.318
51.42	13.306
51.64	3.975
51.86	9.708
52.08	1.364
52.3	3.221
52.52	12.199
52.74	8.344
52.96	1.68
53.18	5.941
53.4	9.061
53.62	1.122
53.84	4.025
54.06	0.993
54.28	0.138
54.5	3.699
54.72	1.45
54.94	16.383
55.16	16.041
55.38	18.694
55.6	11.503
55.82	21.541
56.04	17.567
56.26	8.976
56.48	6.232
56.7	2.509
56.92	3.939
57.14	2.43
57.36	3.749
57.58	2.983
57.8	6.236
58.02	0.742
58.24	5.134
58.46	4.994
58.68	1.735
58.9	0.398
59.12	15.502
59.34	5.463
59.56	4.256
59.78	0.778
60	10.211
60.22	8.119
60.44	2.197
60.66	3.384
60.88	4.381
61.1	2.427
61.32	2.433
61.54	5.493
61.76	1.707
61.98	7.258
62.2	0.748
62.42	6.346
62.64	5.334
62.86	3.207
63.08	3.162
63.3	2.373
63.52	4.315
63.74	5.352
63.96	6.466
64.18	4.543
64.4	3.513
64.62	6.617
64.84	6.695
65.06	0.099
65.28	9.99
65.5	3.891
65.72	1.104
65.94	0.028
66.16	2.231
66.38	10.33
66.6	9.41
66.82	4.489
67.04	3.534
67.26	4.357
67.48	0.235
67.7	2.277
67.92	4.316
68.14	2.245
68.36	5.162
68.58	0.235
68.8	3.186
69.02	7.178
69.24	5.179
69.46	3.042
69.68	1.981
69.9	2.976
70.12	2.883
70.34	1.769
70.56	5.739
70.78	10.858
71	2.723
71.22	4.598
71.44	10.612
71.66	7.683
71.88	3.839
72.1	4.936
72.32	5.113
72.54	6.232
72.76	6.41
72.98	4.477
73.2	2.284
73.42	2.189
73.64	2.081
73.86	1.884
74.08	4.532
74.3	2.3
74.52	5.328
74.74	6.041
74.96	3.78
75.18	12.381
75.4	6.398
75.62	0.668
75.84	4.333
76.06	2.279
76.28	5.399
76.5	8.631
76.72	3.645
76.94	6.451
77.16	1.559
77.38	1.671
77.6	1.768
77.82	4.063
78.04	5.356
78.26	10.478
78.48	8.513
78.7	5.436
78.92	3.274
79.14	1.749
79.36	6.211
79.58	3.244
79.8	8.252
80.02	8.128
80.24	6.763
80.46	3.63
80.68	6.471
80.9	2.502
81.12	10.495
81.34	2.548
81.56	6.761
81.78	4.821
82	3.944
82.22	7.102
82.44	5.591
82.66	3.753
82.88	1.797
83.1	1.924
83.32	6.979
83.54	0.927
83.76	7.16
83.98	6.064
84.2	5.158
84.42	2.966
84.64	3.912
84.86	6.596
85.08	2.677
85.3	3.643
85.52	7.646
85.74	4.606
85.96	2.615
86.18	3.583
86.4	0.581
86.62	8.509
86.84	8.661
87.06	5.827
87.28	6.918
87.5	7.792
87.72	2.693
87.94	0.356
88.16	2.602
88.38	1.512
88.6	0.524
88.82	2.495
89.04	8.396
89.26	7.923
89.48	8.885
89.7	4.046
89.92	1.922
