Measurement: Powder, Xray Data XY Processed
Mineral: Hydroxylbastnasite-(Ce)
Rruff sample: R060283
Ideal chemistry: CeCO_3_(OH)
Locality: Trimouns, Luzenac, France
Source: Herb Obodda
Description: Brown hexagonal tablet
Diffraction sample description: Powder
Measured chemistry: (Ce_0.50_Nd_0.24_(La,Pr)_0.23_Y_0.03_)_Σ=1_CO_3_((OH)_0.65_F_0.35_)_Σ=1_
Cell parameters: a: 7.1689(2) b: 7.1689(2) c: 9.8518(4) alpha: 90 beta: 90 gamma: 120 volume: 438.48(3) crystal system: hexagonal
x	intensity
5	0
5.22	2.761
5.44	2.575
5.66	22.043
5.88	5.274
6.1	3.666
6.32	3.071
6.54	7.875
6.76	6.574
6.98	8.135
7.2	10.613
7.42	2.113
7.64	3.301
7.86	11.838
8.08	10.918
8.3	2.941
8.52	3.82
8.74	9.572
8.96	0.014
9.18	14.645
9.4	10.283
9.62	7.345
9.84	16.102
10.06	0.333
10.28	9.001
10.5	2.057
10.72	1.14
10.94	14.274
11.16	6.56
11.38	7.712
11.6	3.964
11.82	4.526
12.04	14.643
12.26	5.417
12.48	11.559
12.7	12.638
12.92	12.862
13.14	7.103
13.36	4.266
13.58	11.272
13.8	6.324
14.02	7.586
14.24	9.332
14.46	6.565
14.68	6.996
14.9	6.944
15.12	8.86
15.34	2.868
15.56	6.695
15.78	4.8
16	2.817
16.22	17.728
16.44	1.36
16.66	8.169
16.88	8.64
17.1	7.462
17.32	12.131
17.54	5.082
17.76	4.091
17.98	144.984
18.2	20.011
18.42	11.159
18.64	1.171
18.86	11.478
19.08	2.672
19.3	2.866
19.52	9.185
19.74	3.38
19.96	1.481
20.18	11.448
20.4	13.615
20.62	4.762
20.84	2.598
21.06	19.783
21.28	8.607
21.5	8.563
21.72	1.572
21.94	5.5
22.16	4.682
22.38	11.524
22.6	4.715
22.82	3.594
23.04	8.475
23.26	9.297
23.48	9.865
23.7	1.367
23.92	7.254
24.14	4.9
24.36	11.742
24.58	13.268
24.8	211.317
25.02	48.909
25.24	16.152
25.46	1.137
25.68	9.555
25.9	2.141
26.12	2.474
26.34	6.924
26.56	11.233
26.78	9.396
27	9.739
27.22	4.764
27.44	6.837
27.66	7.732
27.88	7.626
28.1	1.398
28.32	11.102
28.54	3.429
28.76	3.121
28.98	0.921
29.2	4.729
29.42	0.751
29.64	1.108
29.86	3.542
30.08	4.063
30.3	16.564
30.52	13.361
30.74	69.21
30.96	187.604
31.18	13.861
31.4	5.932
31.62	0.702
31.84	5.98
32.06	0.622
32.28	9.11
32.5	0.785
32.72	0.39
32.94	5.72
33.16	7.795
33.38	4.013
33.6	0.031
33.82	4.868
34.04	5.902
34.26	8.642
34.48	3.422
34.7	4.225
34.92	5.228
35.14	9.07
35.36	4.157
35.58	14.132
35.8	0.281
36.02	8.264
36.24	3.472
36.46	38.653
36.68	4.651
36.9	8.755
37.12	0.263
37.34	4.394
37.56	7.239
37.78	5.159
38	1.329
38.22	0.116
38.44	6.062
38.66	3.901
38.88	7.83
39.1	2.997
39.32	8.233
39.54	14.534
39.76	12.763
39.98	4.209
40.2	8.215
40.42	2.444
40.64	4.692
40.86	0.244
41.08	9.232
41.3	8.447
41.52	8.91
41.74	12.499
41.96	13.099
42.18	2.386
42.4	2.556
42.62	0.764
42.84	12.908
43.06	0.115
43.28	5.111
43.5	15.503
43.72	123.746
43.94	35.521
44.16	6.777
44.38	17.741
44.6	111.584
44.82	46.154
45.04	10.921
45.26	4.701
45.48	1.414
45.7	6.175
45.92	2.594
46.14	4.081
46.36	8.202
46.58	0.023
46.8	5.955
47.02	8.397
47.24	4.317
47.46	15.117
47.68	72.998
47.9	24.12
48.12	4.056
48.34	7.784
48.56	7.845
48.78	1.09
49	0.575
49.22	1.923
49.44	2.604
49.66	6.431
49.88	10.481
50.1	8.347
50.32	0.116
50.54	0.992
50.76	10.789
50.98	35.848
51.2	12.585
51.42	1.571
51.64	8.536
51.86	5.281
52.08	16.623
52.3	3.732
52.52	6.639
52.74	2.6
52.96	4.398
53.18	3.982
53.4	7.69
53.62	5.522
53.84	11.335
54.06	1.398
54.28	7.312
54.5	41.044
54.72	21.962
54.94	4.06
55.16	13.4
55.38	10.692
55.6	2.809
55.82	5.019
56.04	7.643
56.26	4.897
56.48	6.667
56.7	8.675
56.92	2.643
57.14	0.649
57.36	5.48
57.58	5.371
57.8	4.331
58.02	11.353
58.24	35.345
58.46	12.042
58.68	4.305
58.9	0.658
59.12	1.97
59.34	3.063
59.56	7.508
59.78	2.793
60	7.886
60.22	5.147
60.44	7.464
60.66	6.49
60.88	9.466
61.1	7.221
61.32	11.865
61.54	4.874
61.76	4.693
61.98	3.676
62.2	17.757
62.42	15.826
62.64	8.51
62.86	4.448
63.08	7.294
63.3	7.227
63.52	3.14
63.74	7.061
63.96	8.165
64.18	28.154
64.4	25.069
64.62	5.84
64.84	0.045
65.06	2.165
65.28	11.407
65.5	3.888
65.72	2.029
65.94	6.178
66.16	5.387
66.38	5.515
66.6	9.688
66.82	1.443
67.04	3.629
67.26	9.944
67.48	5.739
67.7	5.453
67.92	11.099
68.14	6.99
68.36	0.162
68.58	0.35
68.8	10.479
69.02	2.501
69.24	7.331
69.46	14.26
69.68	11.861
69.9	14.844
70.12	1.908
70.34	6.924
70.56	0.031
70.78	4.094
71	13.058
71.22	0.81
71.44	3.472
71.66	4.431
71.88	10.111
72.1	8.668
72.32	31.294
72.54	23.235
72.76	1.968
72.98	1.943
73.2	2.914
73.42	4.08
73.64	5.28
73.86	3.495
74.08	3.556
74.3	4.812
74.52	2.255
74.74	2.92
74.96	3.137
75.18	10.32
75.4	7.401
75.62	4.638
75.84	2.785
76.06	3.781
76.28	4.061
76.5	1.356
76.72	8.308
76.94	3.956
77.16	9.069
77.38	2.939
77.6	16.699
77.82	9.499
78.04	2.201
78.26	5.09
78.48	11.828
78.7	4.705
78.92	8.189
79.14	14.882
79.36	2.413
79.58	13.178
79.8	12.048
80.02	3.914
80.24	9.861
80.46	11.932
80.68	11.991
80.9	29.984
81.12	23.247
81.34	6.839
81.56	0.933
81.78	3.231
82	4.417
82.22	7.671
82.44	8.888
82.66	6.202
82.88	16.294
83.1	17.412
83.32	21.583
83.54	5.597
83.76	11.273
83.98	3.382
84.2	2.261
84.42	8.88
84.64	6.065
84.86	5.132
85.08	1.113
85.3	0.166
85.52	2.039
85.74	7.063
85.96	4.854
86.18	3.902
86.4	8.911
86.62	3.277
86.84	2.721
87.06	4.91
87.28	1.058
87.5	5.338
87.72	7.329
87.94	8.266
88.16	4.271
88.38	8.268
88.6	5.394
88.82	4.427
89.04	21.568
89.26	1.156
89.48	3.873
89.7	11.889
89.92	7.535
