Measurement: Powder, Xray Data XY Processed
Mineral: Ilmenite
Rruff sample: R060149
Ideal chemistry: Fe^2+^Ti^4+^O_3_
Locality: Faraday Property, Bancroft District, Ontario, Canada
Source: Marcus Origlieri
Description: Black thick tabular crystal
Diffraction sample description: Powder
Measured chemistry: Fe^2+^_0.96_Mn_0.07_Mg_0.01_Ti_0.98_O_3_
Cell parameters: a: 5.0920(2) b: 5.0920(2) c: 14.0887(6) alpha: 90 beta: 90 gamma: 120 volume: 316.35(2) crystal system: hexagonal
x	intensity
5	0
5.22	15.88
5.44	12.366
5.66	4.76
5.88	9.055
6.1	2.95
6.32	11.425
6.54	23.719
6.76	13.281
6.98	18.224
7.2	37.514
7.42	7.276
7.64	12.365
7.86	0.71
8.08	4.163
8.3	9.641
8.52	3.925
8.74	12.664
8.96	10.506
9.18	3.841
9.4	19.581
9.62	5.864
9.84	7.973
10.06	3.081
10.28	7.926
10.5	16.278
10.72	17.083
10.94	5.11
11.16	6.156
11.38	2.95
11.6	26.825
11.82	6.166
12.04	8.878
12.26	11.953
12.48	17.422
12.7	9.76
12.92	12.981
13.14	18.042
13.36	0.145
13.58	10.743
13.8	20.819
14.02	10.121
14.24	20.728
14.46	10.385
14.68	11.481
14.9	11.517
15.12	12.979
15.34	2.02
15.56	0.005
15.78	12.774
16	6.908
16.22	7.796
16.44	9.612
16.66	15.783
16.88	11.975
17.1	18.654
17.32	11.946
17.54	12.001
17.76	2.024
17.98	0.434
18.2	17.475
18.42	16.105
18.64	4.003
18.86	4.397
19.08	4.956
19.3	5.028
19.52	17.576
19.74	19.665
19.96	1.477
20.18	3.039
20.4	12.327
20.62	1.068
20.84	6.462
21.06	11.198
21.28	2.184
21.5	11.016
21.72	12.633
21.94	19.759
22.16	8.467
22.38	13.562
22.6	6.189
22.82	8.785
23.04	11.524
23.26	7.867
23.48	5.056
23.7	14.645
23.92	32.847
24.14	12.536
24.36	20.558
24.58	2.46
24.8	13.491
25.02	0.04
25.24	11.607
25.46	11.176
25.68	1.216
25.9	7.19
26.12	21.682
26.34	8.024
26.56	1.107
26.78	20.65
27	8.546
27.22	27.994
27.44	16.459
27.66	13.683
27.88	15.935
28.1	15.378
28.32	3.384
28.54	18.049
28.76	0.622
28.98	21.756
29.2	6.071
29.42	5.697
29.64	30.289
29.86	11.438
30.08	14.3
30.3	9.125
30.52	7.91
30.74	18.411
30.96	4.049
31.18	10.552
31.4	10.847
31.62	13.059
31.84	19.856
32.06	1.92
32.28	7.727
32.5	83.574
32.72	49.521
32.94	12.243
33.16	20.469
33.38	7.674
33.6	3.384
33.82	17.455
34.04	13.085
34.26	1.221
34.48	3.319
34.7	14.997
34.92	9.719
35.14	7.789
35.36	54.668
35.58	22.883
35.8	8.154
36.02	15.539
36.24	0.42
36.46	3.048
36.68	6.181
36.9	17.316
37.12	6.32
37.34	20.761
37.56	3.407
37.78	27.213
38	23.12
38.22	14.887
38.44	19.994
38.66	5.686
38.88	13.347
39.1	13.069
39.32	20.674
39.54	2.294
39.76	13.376
39.98	16.462
40.2	19.252
40.42	21.887
40.64	22.59
40.86	11.35
41.08	9.92
41.3	1.146
41.52	9.737
41.74	2.794
41.96	1.117
42.18	8.566
42.4	9.688
42.62	15.959
42.84	11.244
43.06	6.493
43.28	7.853
43.5	1.632
43.72	10.824
43.94	16.361
44.16	13.261
44.38	15.174
44.6	0.054
44.82	16.244
45.04	17.135
45.26	7.422
45.48	0.672
45.7	11.093
45.92	26.72
46.14	14.889
46.36	18.327
46.58	15.177
46.8	18.071
47.02	3.072
47.24	9.468
47.46	8.023
47.68	7.932
47.9	0.953
48.12	20.456
48.34	4.668
48.56	15.098
48.78	35.588
49	29.508
49.22	14.676
49.44	21.638
49.66	15.364
49.88	8.591
50.1	20.026
50.32	13.297
50.54	0.589
50.76	19.151
50.98	1.297
51.2	2.109
51.42	16.384
51.64	3.879
51.86	24.191
52.08	15.974
52.3	9.522
52.52	3.058
52.74	21.76
52.96	27.594
53.18	61.711
53.4	12.469
53.62	2.848
53.84	3.29
54.06	13.537
54.28	7.16
54.5	3.547
54.72	29.878
54.94	18.172
55.16	10.258
55.38	5.298
55.6	5.427
55.82	15.457
56.04	20.384
56.26	39.916
56.48	1.763
56.7	18.303
56.92	9.475
57.14	21.763
57.36	2.328
57.58	9.748
57.8	7.368
58.02	8.16
58.24	12.476
58.46	19.499
58.68	11.768
58.9	13.013
59.12	7.993
59.34	18.52
59.56	2.128
59.78	14.151
60	18.544
60.22	18.384
60.44	13.191
60.66	2.809
60.88	12.804
61.1	13.807
61.32	12.231
61.54	46.371
61.76	28.43
61.98	12.229
62.2	13.682
62.42	8.55
62.64	4.662
62.86	4.039
63.08	4.02
63.3	30.775
63.52	22.526
63.74	9.862
63.96	13.989
64.18	17.145
64.4	8.223
64.62	19.569
64.84	0.337
65.06	1.849
65.28	2.428
65.5	14.674
65.72	25.13
65.94	12.659
66.16	16.908
66.38	19.493
66.6	2.986
66.82	19.128
67.04	13.247
67.26	11.709
67.48	5.721
67.7	1.917
67.92	15.249
68.14	11.426
68.36	8.991
68.58	17.153
68.8	9.369
69.02	4.816
69.24	19.474
69.46	15.282
69.68	15.771
69.9	14.603
70.12	45.913
70.34	32.824
70.56	0.39
70.78	19.289
71	10.984
71.22	3.909
71.44	22.778
71.66	2.219
71.88	19.13
72.1	5.379
72.32	22.261
72.54	33.282
72.76	1.375
72.98	1.582
73.2	13.184
73.42	12.38
73.64	7.637
73.86	16.895
74.08	13.57
74.3	11.131
74.52	25.329
74.74	5.847
74.96	19.399
75.18	11.399
75.4	17.946
75.62	16.671
75.84	20.594
76.06	8.311
76.28	19.02
76.5	15.401
76.72	3.264
76.94	18.75
77.16	11.02
77.38	20.375
77.6	14.358
77.82	1.285
78.04	3.479
78.26	2.348
78.48	0.264
78.7	15.415
78.92	25.392
79.14	28.851
79.36	12.118
79.58	6.982
79.8	19.362
80.02	7.975
80.24	12.31
80.46	28.064
80.68	5.39
80.9	14.93
81.12	7.86
81.34	1.331
81.56	15.096
81.78	6.784
82	22.793
82.22	15.639
82.44	20.964
82.66	20.955
82.88	3.11
83.1	14.918
83.32	5.582
83.54	6.517
83.76	18.464
83.98	6.89
84.2	17.309
84.42	2.662
84.64	9.9
84.86	23.457
85.08	23.39
85.3	11.508
85.52	1.55
85.74	28.758
85.96	7.712
86.18	15.966
86.4	18.317
86.62	12.844
86.84	21.26
87.06	18.989
87.28	23.996
87.5	15.332
87.72	17.848
87.94	14.474
88.16	10.328
88.38	7.543
88.6	19.541
88.82	10.669
89.04	21.792
89.26	16.13
89.48	15.678
89.7	26.382
89.92	12.594
