Measurement: Powder, Xray Data XY Processed
Mineral: Inyoite
Rruff sample: R050157
Ideal chemistry: CaB_3_O_3_(OH)_5_4H_2_O
Locality: Sijes, Salta, Argentina
Source: Jim McGlasson
Description: Group of colorless tabular crystals
Diffraction sample description: Powder
Measured chemistry: (Ca_0.986_H_0.014_)(B_0.995_Si_0.005_)_3_O_3_(OH)_5_ Â·4H_2_O
Cell parameters: a: 10.6063(9) b: 12.0581(7) c: 8.4001(4) alpha: 90. beta: 113.979(6) gamma: 90. volume: 981.59(8) crystal system: monoclinic
x	intensity
5	0
5.22	8.618
5.44	8.265
5.66	12.909
5.88	7.13
6.1	15.877
6.32	11.289
6.54	14.801
6.76	11.48
6.98	4.987
7.2	9.594
7.42	3.962
7.64	5.482
7.86	3.113
8.08	14.234
8.3	10.828
8.52	9.481
8.74	3.973
8.96	4.302
9.18	12.816
9.4	0.291
9.62	13.676
9.84	1.924
10.06	1.27
10.28	8.352
10.5	3.989
10.72	9.517
10.94	2.087
11.16	1.339
11.38	48.045
11.6	213.632
11.82	23.661
12.04	1.615
12.26	10.457
12.48	2.603
12.7	1.758
12.92	2.701
13.14	4.332
13.36	1.168
13.58	33.188
13.8	4.667
14.02	8.888
14.24	5.035
14.46	8.336
14.68	82.446
14.9	7.727
15.12	3.724
15.34	14.758
15.56	4.726
15.78	7.709
16	0.265
16.22	4.505
16.44	6.287
16.66	7.734
16.88	7.886
17.1	6.754
17.32	31.621
17.54	0.231
17.76	9.808
17.98	1.727
18.2	6.878
18.42	5.692
18.64	87.514
18.86	28.393
19.08	8.728
19.3	5.425
19.52	3.447
19.74	68.585
19.96	6.783
20.18	0.156
20.4	10.705
20.62	8.45
20.84	2.58
21.06	6.466
21.28	6.394
21.5	4.933
21.72	3.477
21.94	2.742
22.16	4.913
22.38	9.352
22.6	11.831
22.82	21.089
23.04	13.607
23.26	31.318
23.48	4.61
23.7	0.917
23.92	62.744
24.14	10.967
24.36	9.907
24.58	4.896
24.8	2.441
25.02	49.534
25.24	2.681
25.46	8.068
25.68	8.623
25.9	102.614
26.12	13.649
26.34	21.503
26.56	354.278
26.78	6.254
27	12.157
27.22	0.805
27.44	7.954
27.66	7.076
27.88	2.67
28.1	4.321
28.32	20.228
28.54	19.8
28.76	13.351
28.98	12.877
29.2	18.4
29.42	29.007
29.64	64.194
29.86	15.401
30.08	4.494
30.3	8.839
30.52	4.49
30.74	5.772
30.96	11.007
31.18	13.755
31.4	3.958
31.62	12.873
31.84	23.505
32.06	43.623
32.28	49.278
32.5	0.526
32.72	4.845
32.94	6.826
33.16	13.196
33.38	1.503
33.6	8.683
33.82	30.976
34.04	26.231
34.26	5.31
34.48	16.169
34.7	3.806
34.92	5.758
35.14	17.352
35.36	21.76
35.58	67.382
35.8	18.328
36.02	21.292
36.24	10.188
36.46	3.733
36.68	3.3
36.9	9.343
37.12	3.955
37.34	36.053
37.56	15.691
37.78	8.865
38	17.838
38.22	3.029
38.44	41.899
38.66	0.023
38.88	0.55
39.1	53.461
39.32	7.867
39.54	19.513
39.76	4.637
39.98	3.246
40.2	23.916
40.42	7.93
40.64	4.913
40.86	20.927
41.08	12.916
41.3	35.872
41.52	22.74
41.74	7.886
41.96	43.987
42.18	0.163
42.4	2.133
42.62	6.06
42.84	4.545
43.06	8.09
43.28	0.325
43.5	19.026
43.72	66.373
43.94	6.943
44.16	96.52
44.38	19.034
44.6	5.657
44.82	6.989
45.04	20.973
45.26	2.164
45.48	4.365
45.7	22.535
45.92	9.792
46.14	31.708
46.36	23.384
46.58	15.177
46.8	31.93
47.02	9.368
47.24	7.798
47.46	3.979
47.68	3.734
47.9	8.559
48.12	30.82
48.34	24.972
48.56	2.773
48.78	1.067
49	14.799
49.22	10.022
49.44	7.197
49.66	3.711
49.88	8.202
50.1	7.752
50.32	14.84
50.54	7.232
50.76	3.723
50.98	2.18
51.2	3.417
51.42	16.599
51.64	9.792
51.86	17.67
52.08	8.616
52.3	48.475
52.52	13.287
52.74	0.31
52.96	3.147
53.18	12.139
53.4	7.801
53.62	3.845
53.84	17.862
54.06	10.824
54.28	11.85
54.5	4.8
54.72	4.755
54.94	6.904
55.16	2.127
55.38	1.212
55.6	8.921
55.82	0.999
56.04	2.921
56.26	4.745
56.48	1.691
56.7	2.738
56.92	18.048
57.14	10.958
57.36	0.754
57.58	8.552
57.8	9.594
58.02	6.537
58.24	11.905
58.46	18.253
58.68	19.406
58.9	4.673
59.12	1.706
59.34	1.749
59.56	3.886
59.78	0.982
60	2.08
60.22	0.138
60.44	2.483
60.66	10.115
60.88	1.134
61.1	2.154
61.32	5.089
61.54	9.144
61.76	5.002
61.98	6.104
62.2	1.215
62.42	3.333
62.64	8.59
62.86	0.466
63.08	1.476
63.3	0.743
63.52	2.817
63.74	2.785
63.96	3.792
64.18	0.217
64.4	2.759
64.62	8.185
64.84	10.94
65.06	0.028
65.28	6.896
65.5	8.617
65.72	4.39
65.94	9.54
66.16	0.502
66.38	10.466
66.6	3.744
66.82	13.912
67.04	4.595
67.26	0.759
67.48	6.796
67.7	6.287
67.92	2.569
68.14	0.731
68.36	11.945
68.58	12.242
68.8	4.385
69.02	0.751
69.24	6.311
69.46	11.459
69.68	6.57
69.9	0.32
70.12	7.03
70.34	6.086
70.56	4.072
70.78	9.87
71	5.615
71.22	7.49
71.44	7.428
71.66	0.385
71.88	6.127
72.1	6.946
72.32	5.916
72.54	4.093
72.76	1.3
72.98	12.36
73.2	113.362
73.42	57.667
73.64	7.82
73.86	1.89
74.08	1.039
74.3	2.189
74.52	6.343
74.74	4.486
74.96	1.423
75.18	4.389
75.4	12.617
75.62	4.722
75.84	4.646
76.06	4.316
76.28	5.281
76.5	10.336
76.72	3.361
76.94	0.366
77.16	1.65
77.38	6.296
77.6	2.18
77.82	6.131
78.04	9.124
78.26	5.088
78.48	5.432
78.7	5.343
78.92	3.287
79.14	13.375
79.36	11.317
79.58	8.385
79.8	10.404
80.02	5.292
80.24	5.663
80.46	11.591
80.68	1.31
80.9	10.73
81.12	7.881
81.34	5.043
81.56	9.89
81.78	5.023
82	5.231
82.22	8.502
82.44	7.832
82.66	4.421
82.88	7.546
83.1	5.744
83.32	5.939
83.54	1.95
83.76	4.974
83.98	6.164
84.2	6.246
84.42	8.114
84.64	2.858
84.86	0.573
85.08	2.424
85.3	8.311
85.52	0.931
85.74	2.882
85.96	5.201
86.18	9.167
86.4	1.023
86.62	8.102
86.84	10.201
87.06	4.345
87.28	8.762
87.5	5.957
87.72	0.836
87.94	8.303
88.16	7.26
88.38	4.158
88.6	10.386
88.82	9.376
89.04	1.332
89.26	13.065
89.48	1.929
89.7	5.114
89.92	1.166
