Measurement: Powder, Xray Data XY Processed
Mineral: Iriginite
Rruff sample: R060269
Ideal chemistry: (U^6+^O_2_)Mo^6+^_2_O_7_3H_2_O
Locality: Hervey's Range Deposit, 55 kilometers west of Townsville, Queensland, Australia
Source: Michael Scott
Description: Tan colored radial group of acicular prismatic crystals
Diffraction sample description: Single crystal, powder profile is calculated
Measured chemistry: (UO_2_)Mo^6+^_2_O_7_Â·3H_2_O
Cell parameters: a: 6.71(2) b: 12.84(5) c: 11.58(4) alpha: 90 beta: 90 gamma: 90 volume: 998(2) crystal system: orthorhombic
x	intensity
5	0
5.22	0
5.44	0
5.66	0
5.88	0
6.1	0
6.32	0
6.54	0
6.76	0
6.98	0
7.2	0
7.42	0
7.64	0
7.86	0
8.08	0
8.3	0
8.52	0
8.74	0
8.96	0
9.18	0
9.4	0
9.62	0
9.84	0
10.06	0
10.28	0
10.5	0
10.72	0
10.94	0
11.16	0
11.38	0
11.6	0
11.82	0
12.04	0
12.26	0
12.48	0
12.7	0
12.92	0
13.14	0.399
13.36	0
13.58	0
13.8	96.082
14.02	0
14.24	0
14.46	0
14.68	0
14.9	0.165
15.12	0
15.34	3.48
15.56	0
15.78	1.887
16	0
16.22	0
16.44	0
16.66	0.131
16.88	0.024
17.1	0
17.32	0
17.54	0
17.76	0
17.98	0
18.2	0
18.42	0
18.64	0
18.86	0
19.08	0.221
19.3	0
19.52	0
19.74	0
19.96	0
20.18	0.387
20.4	0.001
20.62	7.16
20.84	0
21.06	0
21.28	0
21.5	0.051
21.72	0
21.94	0
22.16	0
22.38	0
22.6	0
22.82	0
23.04	0
23.26	0
23.48	0
23.7	0
23.92	0
24.14	0
24.36	0
24.58	5.687
24.8	0.007
25.02	0
25.24	0
25.46	0
25.68	0
25.9	4.029
26.12	0
26.34	0
26.56	7.213
26.78	0
27	0.258
27.22	0
27.44	1.036
27.66	2.35
27.88	2.007
28.1	0
28.32	0
28.54	14.52
28.76	0.073
28.98	0.071
29.2	0.512
29.42	0
29.64	0
29.86	0
30.08	4.733
30.3	0
30.52	0
30.74	1.374
30.96	0.159
31.18	0.005
31.4	0
31.62	0.076
31.84	1.678
32.06	0
32.28	0
32.5	0
32.72	0
32.94	0
33.16	0
33.38	0
33.6	0.031
33.82	1.188
34.04	5.525
34.26	0
34.48	0.029
34.7	0.269
34.92	1.03
35.14	0
35.36	0
35.58	0
35.8	0
36.02	0
36.24	0.003
36.46	0.345
36.68	0.111
36.9	0
37.12	0
37.34	0
37.56	0.282
37.78	0
38	0
38.22	0.212
38.44	0.33
38.66	0
38.88	1.198
39.1	0
39.32	0
39.54	0.064
39.76	0.024
39.98	0.221
40.2	0.004
40.42	0.061
40.64	0.153
40.86	0.029
41.08	0.056
41.3	0.128
41.52	0.43
41.74	1.33
41.96	2.972
42.18	3.322
42.4	0.025
42.62	0
42.84	0.01
43.06	0.581
43.28	1.1
43.5	0.536
43.72	0.742
43.94	0.032
44.16	0.117
44.38	2.481
44.6	1.021
44.82	0
45.04	0.223
45.26	1.173
45.48	0
45.7	3.659
45.92	0.007
46.14	0
46.36	0.071
46.58	2.029
46.8	0.002
47.02	2.304
47.24	0.851
47.46	1.102
47.68	0.032
47.9	0
48.12	0.006
48.34	0.643
48.56	0.166
48.78	0.085
49	0.009
49.22	2.154
49.44	1.327
49.66	0.067
49.88	0.04
50.1	0
50.32	0.288
50.54	1.714
50.76	0.227
50.98	0
51.2	0.333
51.42	0.011
51.64	1.5
51.86	0.264
52.08	0.001
52.3	1.508
52.52	0.961
52.74	0.028
52.96	0
53.18	0.452
53.4	0.01
53.62	0.845
53.84	1.31
54.06	0.01
54.28	0.215
54.5	0.01
54.72	0.027
54.94	0.902
55.16	0.544
55.38	0.731
55.6	0.329
55.82	2.285
56.04	0.05
56.26	0.073
56.48	0.001
56.7	0.007
56.92	0.25
57.14	0.453
57.36	1.663
57.58	0.082
57.8	0.901
58.02	0.196
58.24	0.001
58.46	0
58.68	0.11
58.9	0.028
59.12	0.374
59.34	0.076
59.56	0.542
59.78	1.423
60	0.108
60.22	0
60.44	0.933
60.66	0.1
60.88	0
61.1	0
61.32	0.269
61.54	0.575
61.76	0.126
61.98	0.031
62.2	0.2
62.42	0.085
62.64	0.356
62.86	0.022
63.08	0.388
63.3	0.041
63.52	0
63.74	0
63.96	0
64.18	0.064
64.4	0.11
64.62	0.06
64.84	0.405
65.06	1.053
65.28	0.073
65.5	0.041
65.72	0.032
65.94	0.323
66.16	0.297
66.38	0.613
66.6	0.937
66.82	0.299
67.04	0.587
67.26	0.501
67.48	0.164
67.7	0.209
67.92	0.04
68.14	0.026
68.36	0.022
68.58	0
68.8	1.065
69.02	0.317
69.24	0.128
69.46	0.196
69.68	0.192
69.9	0.007
70.12	0.017
70.34	0.003
70.56	0.001
70.78	0.113
71	0.12
71.22	0.535
71.44	0.787
71.66	0.263
71.88	0.386
72.1	0.404
72.32	0.161
72.54	0.212
72.76	0.12
72.98	0.724
73.2	0.42
73.42	0.006
73.64	0.262
73.86	0.305
74.08	0.097
74.3	0.097
74.52	0.456
74.74	0.255
74.96	0.022
75.18	0.032
75.4	0.047
75.62	0.361
75.84	0.447
76.06	0.153
76.28	0.008
76.5	0.044
76.72	0.02
76.94	0.264
77.16	0.742
77.38	0.383
77.6	0.061
77.82	0.022
78.04	0.004
78.26	0.004
78.48	0.44
78.7	0.378
78.92	0.842
79.14	0.477
79.36	0.124
79.58	0.027
79.8	0.452
80.02	0.313
80.24	0.685
80.46	0.449
80.68	0.122
80.9	0.012
81.12	0.002
81.34	0.026
81.56	0.155
81.78	0.049
82	0.418
82.22	0.165
82.44	0.038
82.66	0.002
82.88	0.001
83.1	0.002
83.32	0.101
83.54	0.017
83.76	0.195
83.98	0.104
84.2	0.119
84.42	0.007
84.64	0.292
84.86	0.253
85.08	0.153
85.3	0.389
85.52	0.231
85.74	0.134
85.96	0.082
86.18	0.072
86.4	0.055
86.62	0.089
86.84	0.097
87.06	0.105
87.28	0.195
87.5	0.14
87.72	0.092
87.94	0.186
88.16	0.098
88.38	0.132
88.6	0.127
88.82	0.03
89.04	0.109
89.26	0.037
89.48	0.051
89.7	0.137
89.92	0.092
