Measurement: Powder, Xray Data XY Processed
Mineral: Jahnsite-(CaMnMg)
Rruff sample: R060213
Ideal chemistry: CaMn^2+^Mg_2_Fe^3+^_2_(PO_4_)_4_(OH)_2_8H_2_O
Locality: Tip Top mine, Custer County, South Dakota, USA
Source: Marcus Origlieri
Description: Brown tabular crystals associated with black prismatic rockbridgeite, R060858
Diffraction sample description: Single crystal, powder profile is calculated
Cell parameters: a: 15.12(2) b: 7.208(9) c: 9.990(11) alpha: 90 beta: 110.81(5) gamma: 90 volume: 1018(1) crystal system: monoclinic
x	intensity
5	0
5.22	0
5.44	0
5.66	0
5.88	0
6.1	0
6.32	0
6.54	0
6.76	0
6.98	0
7.2	0
7.42	0
7.64	0
7.86	0
8.08	0
8.3	0
8.52	0
8.74	0
8.96	0
9.18	0
9.4	4.71
9.62	0
9.84	0
10.06	0
10.28	0
10.5	0
10.72	0
10.94	0
11.16	0
11.38	0
11.6	0
11.82	0
12.04	0
12.26	0.931
12.48	0.486
12.7	0.171
12.92	0
13.14	0
13.36	0
13.58	0
13.8	1.949
14.02	0
14.24	0
14.46	0
14.68	0
14.9	0
15.12	0
15.34	0.097
15.56	0.289
15.78	0
16	0
16.22	0
16.44	0
16.66	0
16.88	0
17.1	0
17.32	0
17.54	5.469
17.76	1.413
17.98	15.283
18.2	0.43
18.42	0
18.64	0.351
18.86	0
19.08	2.268
19.3	0
19.52	0
19.74	0
19.96	0
20.18	0
20.4	0
20.62	0
20.84	0
21.06	0
21.28	0
21.5	0
21.72	1.683
21.94	0.004
22.16	0.004
22.38	0.8
22.6	2.14
22.82	0
23.04	0
23.26	0
23.48	0.034
23.7	0
23.92	0
24.14	0
24.36	0
24.58	0.002
24.8	4.504
25.02	0
25.24	5.579
25.46	0.023
25.68	5.97
25.9	0
26.12	0
26.34	0.431
26.56	1.629
26.78	0.027
27	6.021
27.22	0
27.44	0
27.66	0.005
27.88	2.69
28.1	1.124
28.32	0
28.54	0.037
28.76	0.043
28.98	0
29.2	0.607
29.42	0
29.64	0.009
29.86	0
30.08	9.628
30.3	0
30.52	0.089
30.74	5.075
30.96	0.454
31.18	0.112
31.4	23.451
31.62	0
31.84	0
32.06	0.018
32.28	0.001
32.5	0.011
32.72	0
32.94	0.015
33.16	0.232
33.38	0.149
33.6	0
33.82	0.123
34.04	2.343
34.26	0.137
34.48	4.5
34.7	0
34.92	0
35.14	0
35.36	0.179
35.58	0.331
35.8	0.006
36.02	0.057
36.24	0.001
36.46	0.003
36.68	0.612
36.9	0.823
37.12	0.005
37.34	0.005
37.56	0.067
37.78	0.035
38	2.365
38.22	2.733
38.44	0.3
38.66	0.092
38.88	1.137
39.1	0.011
39.32	0.297
39.54	0.034
39.76	0.186
39.98	0.289
40.2	0.03
40.42	0.133
40.64	0.069
40.86	0.051
41.08	0.006
41.3	0
41.52	0
41.74	0.046
41.96	0.571
42.18	0.341
42.4	0.274
42.62	0
42.84	0.283
43.06	0
43.28	1.077
43.5	0.312
43.72	0.312
43.94	0.404
44.16	0.288
44.38	0.479
44.6	0.127
44.82	0.178
45.04	2.868
45.26	0.575
45.48	0.001
45.7	3.635
45.92	0.212
46.14	1.721
46.36	3.139
46.58	0.069
46.8	0.61
47.02	0.031
47.24	0.429
47.46	0.224
47.68	0.028
47.9	0.253
48.12	8.112
48.34	0.135
48.56	0.047
48.78	0.124
49	0.109
49.22	0.102
49.44	0.201
49.66	0.571
49.88	0.162
50.1	0.358
50.32	0.009
50.54	0.495
50.76	2.65
50.98	0.1
51.2	0.176
51.42	0
51.64	0.427
51.86	0.326
52.08	1.875
52.3	0.131
52.52	0.356
52.74	0.184
52.96	0.218
53.18	0.784
53.4	0.299
53.62	0.018
53.84	0
54.06	0.241
54.28	0.125
54.5	1.016
54.72	0.546
54.94	0.061
55.16	0.083
55.38	0.242
55.6	0.289
55.82	0.191
56.04	0.354
56.26	0.17
56.48	0.078
56.7	0.237
56.92	0.147
57.14	0.279
57.36	1.269
57.58	1.309
57.8	0.225
58.02	0.417
58.24	2.594
58.46	0.077
58.68	0.019
58.9	0.413
59.12	0.985
59.34	2.203
59.56	0.213
59.78	0.425
60	1.839
60.22	0.329
60.44	3.461
60.66	0.255
60.88	0.206
61.1	0.078
61.32	0.059
61.54	2.001
61.76	0.132
61.98	0.024
62.2	0.011
62.42	0.594
62.64	0.12
62.86	0.245
63.08	0.054
63.3	0.336
63.52	0.188
63.74	0.427
63.96	0.052
64.18	0.079
64.4	0.282
64.62	0.097
64.84	0.082
65.06	0.146
65.28	0.222
65.5	0.231
65.72	0.035
65.94	0.001
66.16	0.288
66.38	0.141
66.6	0.01
66.82	0.06
67.04	0.053
67.26	0.317
67.48	0.189
67.7	0.052
67.92	0.193
68.14	0.966
68.36	0.698
68.58	0.145
68.8	0.085
69.02	0.05
69.24	0.075
69.46	0.021
69.68	0.053
69.9	0.399
70.12	0.372
70.34	0.135
70.56	0.087
70.78	0.093
71	0.951
71.22	0.555
71.44	0.325
71.66	0.36
71.88	0.325
72.1	0.25
72.32	0.157
72.54	0.141
72.76	0.069
72.98	0.087
73.2	0.194
73.42	0.224
73.64	0.393
73.86	0.189
74.08	0.015
74.3	0.051
74.52	0.041
74.74	0.055
74.96	0.188
75.18	0.098
75.4	0.027
75.62	0.009
75.84	0.03
76.06	0.513
76.28	0.622
76.5	0.501
76.72	0.173
76.94	0.021
77.16	0.018
77.38	0.013
77.6	0.063
77.82	0.072
78.04	0.358
78.26	0.337
78.48	0.15
78.7	0.125
78.92	0.062
79.14	0.167
79.36	0.194
79.58	0.088
79.8	0.006
80.02	0.155
80.24	0.082
80.46	0.06
80.68	0.271
80.9	0.321
81.12	0.074
81.34	0.084
81.56	0.122
81.78	0.172
82	0.274
82.22	0.073
82.44	0.182
82.66	0.16
82.88	0.536
83.1	0.094
83.32	0.036
83.54	0.009
83.76	0.013
83.98	0.043
84.2	0.065
84.42	0.238
84.64	0.254
84.86	0.202
85.08	0.078
85.3	0.171
85.52	0.189
85.74	0.145
85.96	0.119
86.18	0.192
86.4	0.03
86.62	0.15
86.84	0.297
87.06	0.081
87.28	0.085
87.5	0.082
87.72	0.038
87.94	0.075
88.16	0.224
88.38	0.012
88.6	0.067
88.82	0.055
89.04	0.04
89.26	0.011
89.48	0.032
89.7	0.004
89.92	0.044
