Measurement: Powder, Xray Data XY Processed
Mineral: Jamesonite
Rruff sample: R050432
Ideal chemistry: Pb^2+^_4_Fe^2+^Sb^3+^_6_S^2-^_14_
Locality: San Jose mine, Oruro District, Bolivia
Source: University of Arizona Mineral Museum
Description: Grayish black coarse acicular crystals
Diffraction sample description: Powder, cell parameters are from single crystal
Measured chemistry: Pb_4.00_Fe_1.00_(Sb_5.95_As_0.05_)_Î£=6_S_14.00_
Cell parameters: a: 15.745(2) b: 19.051(7) c: 4.018(6) alpha: 90 beta: 91.61(2) gamma: 90 volume: 1204.8(5) crystal system: monoclinic
x	intensity
5	0
5.22	14.3527
5.44	2.13151
5.66	9.79772
5.88	16.8019
6.1	10.9138
6.32	4.39024
6.54	5.65902
6.76	16.8196
6.98	4.48277
7.2	9.86363
7.42	4.81242
7.64	8.07675
7.86	1.42061
8.08	6.76463
8.3	4.03645
8.52	7.29293
8.74	0.159234
8.96	8.87346
9.18	2.69262
9.4	4.62537
9.62	3.68022
9.84	0.887751
10.06	7.01112
10.28	7.11103
10.5	14.3722
10.72	6.58447
10.94	12.8926
11.16	9.58493
11.38	2.52456
11.6	12.6514
11.82	5.68377
12.04	10.0042
12.26	1.24026
12.48	7.57203
12.7	12.5574
12.92	5.26086
13.14	16.2406
13.36	4.90375
13.58	6.76177
13.8	7.11502
14.02	7.91068
14.24	3.74701
14.46	8.63709
14.68	9.53801
14.9	4.37159
15.12	6.31214
15.34	9.56748
15.56	6.53082
15.78	6.62513
16	5.94912
16.22	4.95009
16.44	5.9653
16.66	6.11133
16.88	5.66373
17.1	6.647
17.32	7.54007
17.54	14.4418
17.76	14.0671
17.98	9.88391
18.2	5.84316
18.42	2.61044
18.64	12.7874
18.86	2.90932
19.08	6.98688
19.3	6.93032
19.52	6.96632
19.74	7.51022
19.96	11.5763
20.18	12.4444
20.4	5.96934
20.62	7.17862
20.84	9.08397
21.06	1.08924
21.28	4.43628
21.5	7.10679
21.72	14.9371
21.94	10.313
22.16	9.04755
22.38	0.922935
22.6	9.79942
22.82	7.99627
23.04	19.1714
23.26	13.4938
23.48	5.99536
23.7	5.30421
23.92	9.69362
24.14	6.12122
24.36	9.03375
24.58	3.72463
24.8	13.8836
25.02	7.57878
25.24	0.357304
25.46	1.51967
25.68	19.0361
25.9	25.4502
26.12	17.1004
26.34	18.1383
26.56	10.2367
26.78	19.8254
27	12.3176
27.22	1.77331
27.44	1.1163
27.66	0.775185
27.88	3.26972
28.1	12.1288
28.32	22.9185
28.54	12.8906
28.76	18.3063
28.98	21.8783
29.2	3.61802
29.42	4.6546
29.64	7.50552
29.86	6.82095
30.08	6.80354
30.3	11.3961
30.52	3.39366
30.74	2.05877
30.96	14.948
31.18	26.6016
31.4	19.7992
31.62	24.3405
31.84	24.7871
32.06	3.62252
32.28	13.63
32.5	14.979
32.72	25.7289
32.94	17.6633
33.16	17.4085
33.38	0.402908
33.6	5.69959
33.82	19.1023
34.04	5.29718
34.26	1.39124
34.48	10.2644
34.7	5.86928
34.92	6.72335
35.14	5.63865
35.36	20.044
35.58	2.64125
35.8	6.81126
36.02	0.740408
36.24	2.07337
36.46	11.353
36.68	15.4996
36.9	11.532
37.12	12.7319
37.34	4.60854
37.56	6.91772
37.78	9.05104
38	14.8394
38.22	6.74327
38.44	6.0559
38.66	4.48769
38.88	3.24116
39.1	9.87011
39.32	7.6377
39.54	9.33782
39.76	3.93729
39.98	9.68508
40.2	9.5353
40.42	24.2079
40.64	7.90927
40.86	4.30577
41.08	3.77179
41.3	9.35832
41.52	6.63576
41.74	4.12393
41.96	10.9487
42.18	1.03162
42.4	3.04137
42.62	7.91102
42.84	4.16677
43.06	10.7373
43.28	6.02021
43.5	10.2369
43.72	6.39461
43.94	9.8243
44.16	12.0357
44.38	2.77853
44.6	18.9233
44.82	19.0571
45.04	5.54087
45.26	6.96695
45.48	6.4549
45.7	6.67231
45.92	6.00299
46.14	3.05898
46.36	2.11748
46.58	7.1705
46.8	4.14707
47.02	6.84147
47.24	1.37011
47.46	3.12367
47.68	6.58086
47.9	16.2437
48.12	4.36583
48.34	16.2371
48.56	0.667738
48.78	7.42631
49	1.43983
49.22	10.8033
49.44	6.70988
49.66	13.6875
49.88	4.46224
50.1	7.45339
50.32	3.81967
50.54	11.1768
50.76	2.21087
50.98	1.50816
51.2	3.96213
51.42	7.40757
51.64	2.3689
51.86	3.66115
52.08	10.991
52.3	8.8833
52.52	6.40267
52.74	6.64354
52.96	11.9211
53.18	3.55421
53.4	11.9361
53.62	5.17754
53.84	2.46678
54.06	12.9974
54.28	9.3583
54.5	2.36795
54.72	17.3748
54.94	0.57865
55.16	5.6092
55.38	4.78238
55.6	6.98838
55.82	14.0972
56.04	6.67726
56.26	10.7604
56.48	0.681897
56.7	6.85555
56.92	0.105706
57.14	3.45818
57.36	15.878
57.58	1.10006
57.8	13.1672
58.02	8.39672
58.24	7.44306
58.46	2.0659
58.68	2.99485
58.9	8.88727
59.12	2.85618
59.34	1.20341
59.56	3.54364
59.78	7.11294
60	8.12896
60.22	0.837448
60.44	11.8703
60.66	12.3501
60.88	16.4682
61.1	17.4904
61.32	12.7901
61.54	0.942467
61.76	11.1621
61.98	11.4518
62.2	10.665
62.42	0.692904
62.64	7.5747
62.86	17.6736
63.08	2.00119
63.3	2.9545
63.52	11.9891
63.74	2.63145
63.96	1.24596
64.18	7.99908
64.4	5.83618
64.62	3.33051
64.84	16.2768
65.06	9.04262
65.28	11.1437
65.5	6.18685
65.72	6.80838
65.94	8.91542
66.16	9.11469
66.38	8.17182
66.6	7.18227
66.82	2.47084
67.04	6.96186
67.26	9.10572
67.48	4.05433
67.7	15.2304
67.92	13.3623
68.14	10.5361
68.36	6.63909
68.58	10.5667
68.8	11.6601
69.02	1.29468
69.24	0.635995
69.46	13.4932
69.68	9.54942
69.9	9.04717
70.12	5.25508
70.34	9.32152
70.56	9.30451
70.78	10.2484
71	4.73138
71.22	2.25573
71.44	5.09149
71.66	3.04607
71.88	7.12456
72.1	9.04633
72.32	8.87873
72.54	5.596
72.76	8.54098
72.98	5.60235
73.2	8.71198
73.42	22.6771
73.64	1.58706
73.86	7.64966
74.08	2.5438
74.3	10.4715
74.52	3.47059
74.74	1.18355
74.96	1.71444
75.18	6.79463
75.4	1.10394
75.62	3.98226
75.84	10.2418
76.06	7.64893
76.28	17.6797
76.5	13.7828
76.72	10.8337
76.94	0.960782
77.16	7.02129
77.38	10.9695
77.6	3.52888
77.82	8.36339
78.04	3.08282
78.26	0.012034
78.48	9.75738
78.7	1.82945
78.92	14.101
79.14	10.9281
79.36	4.08683
79.58	0.917699
79.8	2.28832
80.02	19.6736
80.24	8.72356
80.46	2.90835
80.68	8.02682
80.9	5.25174
81.12	6.38937
81.34	6.21686
81.56	14.3746
81.78	9.32815
82	7.25463
82.22	3.05617
82.44	12.9032
82.66	8.25119
82.88	3.20389
83.1	8.20309
83.32	2.43663
83.54	4.36377
83.76	7.51858
83.98	6.5173
84.2	8.42565
84.42	11.4928
84.64	0.590063
84.86	13.531
85.08	7.51406
85.3	7.46199
85.52	3.42401
85.74	5.16684
85.96	8.16079
86.18	5.00445
86.4	0.923817
86.62	14.9504
86.84	10.0167
87.06	7.05724
87.28	1.98894
87.5	6.90271
87.72	5.19835
87.94	6.59835
88.16	1.2019
88.38	10.0576
88.6	1.41386
88.82	14.3947
89.04	0.71187
89.26	1.09773
89.48	9.45019
89.7	3.98938
89.92	4.26581
