Measurement: Powder, Xray Data XY Processed
Mineral: Jamesonite
Rruff sample: R050431
Ideal chemistry: Pb^2+^_4_Fe^2+^Sb^3+^_6_S^2-^_14_
Locality: Trinacria mine, Lake Poopo, Oruro, Bolivia
Source: University of Arizona Mineral Museum
Description: Aggregate of black coarse prismatic crystals, intimately mixed with sphalerite
Diffraction sample description: Powder, mixed with sphalerite a:5.4182(3)
Measured chemistry: lighter phase: (Pb_3.70_Zn_0.30_)_Σ=4_(Fe_0.97_Cu_0.03_)_Σ=1_Sb_6.00_S_14.00_ ; darker phase: (Zn_0.81_Fe_0.17_Cu_0.02_)_Σ=1_S_1.00_
Cell parameters: a: 15.775(3) b: 19.103(5) c: 4.008(2) alpha: 90 beta: 91.58(5) gamma: 90 volume: 1207.3(6) crystal system: monoclinic
x	intensity
5	0
5.22	7.702
5.44	5.833
5.66	11.132
5.88	11.669
6.1	4.376
6.32	9.45
6.54	8.47
6.76	7.224
6.98	4.361
7.2	4.414
7.42	4.536
7.64	1.643
7.86	3.806
8.08	5.067
8.3	10.606
8.52	0.277
8.74	3.737
8.96	0.497
9.18	2.966
9.4	4.625
9.62	0.403
9.84	8.123
10.06	9.905
10.28	6.678
10.5	9.75
10.72	7.302
10.94	2.334
11.16	10.485
11.38	6.641
11.6	11.93
11.82	3.093
12.04	6.293
12.26	0.448
12.48	9.795
12.7	11.008
12.92	6.074
13.14	0.265
13.36	2.209
13.58	17.221
13.8	1.114
14.02	7.15
14.24	1.173
14.46	3.343
14.68	1.45
14.9	10.439
15.12	13.375
15.34	8.432
15.56	12.046
15.78	5.996
16	7.019
16.22	11.101
16.44	4.02
16.66	6.925
16.88	0.213
17.1	3.843
17.32	10.874
17.54	21.537
17.76	4.46
17.98	3.942
18.2	0.947
18.42	7.809
18.64	20.836
18.86	7.841
19.08	8.074
19.3	15.093
19.52	5.018
19.74	4.946
19.96	8.672
20.18	5.403
20.4	10.567
20.62	5.047
20.84	14.485
21.06	8.059
21.28	3.479
21.5	5.5
21.72	26.737
21.94	16.581
22.16	3.641
22.38	5.043
22.6	21.919
22.82	11.404
23.04	80.795
23.26	10.395
23.48	9.928
23.7	8.67
23.92	5.165
24.14	10.534
24.36	6.506
24.58	19.354
24.8	17.577
25.02	12.951
25.24	17.908
25.46	3.078
25.68	6.707
25.9	142.107
26.12	41.057
26.34	16.654
26.56	2.432
26.78	21.217
27	2.333
27.22	4.589
27.44	7.738
27.66	10.588
27.88	2.485
28.1	22.211
28.32	25.645
28.54	214.533
28.76	51.132
28.98	43.709
29.2	4.745
29.42	2.187
29.64	16.877
29.86	9.888
30.08	6.86
30.3	42.724
30.52	6.514
30.74	3.915
30.96	2.81
31.18	1.387
31.4	12.884
31.62	32.644
31.84	47.714
32.06	2.036
32.28	1.448
32.5	17.611
32.72	50.349
32.94	62.211
33.16	12.159
33.38	4.577
33.6	17.73
33.82	13.15
34.04	9.585
34.26	10.496
34.48	4.397
34.7	6.969
34.92	7.934
35.14	8.116
35.36	12.282
35.58	1.429
35.8	3.408
36.02	1.304
36.24	8.362
36.46	10.107
36.68	9.99
36.9	12.652
37.12	2.247
37.34	5.272
37.56	1.219
37.78	6.316
38	21.97
38.22	1.799
38.44	8.41
38.66	6.955
38.88	14.898
39.1	30.821
39.32	5.788
39.54	18.805
39.76	3.928
39.98	8.987
40.2	23.409
40.42	24.574
40.64	13.737
40.86	9.223
41.08	8.468
41.3	5.559
41.52	11.449
41.74	4.458
41.96	2.091
42.18	6.279
42.4	9.891
42.62	8.349
42.84	2.919
43.06	6.976
43.28	22.22
43.5	7.027
43.72	0.442
43.94	16.945
44.16	32.308
44.38	18.007
44.6	17.09
44.82	8.34
45.04	5.705
45.26	6.58
45.48	8.717
45.7	4.689
45.92	0.312
46.14	0.703
46.36	1.729
46.58	13.655
46.8	16.717
47.02	20.415
47.24	25.449
47.46	121.144
47.68	34.442
47.9	20.568
48.12	14.341
48.34	0.438
48.56	4.735
48.78	18.922
49	8.086
49.22	8.509
49.44	12.313
49.66	25.862
49.88	16.168
50.1	29.245
50.32	6.949
50.54	5.016
50.76	1.123
50.98	8.288
51.2	18.683
51.42	11.797
51.64	3.64
51.86	6.943
52.08	8.559
52.3	8.608
52.52	16.919
52.74	13.335
52.96	4.43
53.18	6.641
53.4	13.737
53.62	14.132
53.84	17.411
54.06	11.587
54.28	3.077
54.5	11.537
54.72	8.826
54.94	5.846
55.16	7.098
55.38	5.871
55.6	5.959
55.82	16.755
56.04	6.202
56.26	70.044
56.48	20.925
56.7	7.821
56.92	1.323
57.14	16.579
57.36	6.85
57.58	8.133
57.8	1.702
58.02	5.957
58.24	11.181
58.46	6.062
58.68	9.362
58.9	7.532
59.12	7.577
59.34	11.107
59.56	0.959
59.78	7.836
60	0.441
60.22	4.69
60.44	2.586
60.66	6.786
60.88	10.633
61.1	5.629
61.32	3.429
61.54	6.453
61.76	5.486
61.98	10.413
62.2	9.797
62.42	6.03
62.64	11.606
62.86	5.099
63.08	0.905
63.3	9.735
63.52	6.336
63.74	0.063
63.96	11.736
64.18	5.676
64.4	9.185
64.62	8.918
64.84	4.917
65.06	1.028
65.28	4.248
65.5	3.232
65.72	8.179
65.94	6.391
66.16	15.666
66.38	7.157
66.6	1.165
66.82	7.811
67.04	4.63
67.26	8.358
67.48	17.219
67.7	4.031
67.92	12.852
68.14	3.483
68.36	5.341
68.58	7.194
68.8	4.061
69.02	7.903
69.24	6.051
69.46	9.103
69.68	10.201
69.9	4.848
70.12	1.718
70.34	7.216
70.56	2.472
70.78	3.941
71	1.84
71.22	2.055
71.44	9.065
71.66	4.088
71.88	11.119
72.1	3.96
72.32	7.645
72.54	5.663
72.76	3.315
72.98	3.741
73.2	7.983
73.42	5.313
73.64	9.234
73.86	5.32
74.08	8.345
74.3	13.412
74.52	11.395
74.74	10.296
74.96	6.661
75.18	1.767
75.4	8.123
75.62	14.413
75.84	6.948
76.06	7.719
76.28	10.682
76.5	15.635
76.72	11.618
76.94	0.36
77.16	11.405
77.38	7.59
77.6	10.616
77.82	3.804
78.04	3.03
78.26	6.187
78.48	4.3
78.7	11.521
78.92	11.591
79.14	10.179
79.36	7.849
79.58	9.171
79.8	2.004
80.02	6.017
80.24	4.258
80.46	15.182
80.68	2.125
80.9	6.028
81.12	0.783
81.34	4.729
81.56	1.158
81.78	7.061
82	4.602
82.22	1.832
82.44	5.815
82.66	7.764
82.88	5.483
83.1	4.642
83.32	2.751
83.54	8.875
83.76	5.884
83.98	5.934
84.2	7.996
84.42	3.043
84.64	3.699
84.86	3.654
85.08	8.483
85.3	9.781
85.52	0.357
85.74	0.276
85.96	1.057
86.18	12.943
86.4	4.81
86.62	10.749
86.84	8.82
87.06	10.821
87.28	6.886
87.5	4.234
87.72	5.636
87.94	2.161
88.16	10.945
88.38	23.286
88.6	23.597
88.82	3.905
89.04	17.303
89.26	9.08
89.48	10.964
89.7	8.944
89.92	6.513
