Measurement: Powder, Xray Data XY Processed
Mineral: Jarosite
Rruff sample: R060236
Ideal chemistry: KFe^3+^_3_(S^6+^O_4_)_2_(OH)_6_
Locality: Gold Hill, Tooele County, Utah, USA
Source: Michael Scott
Description: Spherical groups of brown bladed crystals
Diffraction sample description: Single crystal, powder profile is calculated
Cell parameters: a: 7.31(5) b: 7.31(5) c: 17.17(15) alpha: 90 beta: 90 gamma: 120 volume: 794(1) crystal system: hexagonal
x	intensity
5	0
5.22	0
5.44	0
5.66	0
5.88	0
6.1	0
6.32	0
6.54	0
6.76	0
6.98	0
7.2	0
7.42	0
7.64	0
7.86	0
8.08	0
8.3	0
8.52	0
8.74	0
8.96	0
9.18	0
9.4	0
9.62	0
9.84	0
10.06	0
10.28	0
10.5	0
10.72	0
10.94	0
11.16	0
11.38	0
11.6	0
11.82	0
12.04	0
12.26	0
12.48	0
12.7	0
12.92	0
13.14	0
13.36	0
13.58	0
13.8	0
14.02	0
14.24	0
14.46	0
14.68	0
14.9	21.434
15.12	0
15.34	0
15.56	2.019
15.78	0
16	0
16.22	0
16.44	0
16.66	0
16.88	0
17.1	0
17.32	0.67
17.54	0.197
17.76	0
17.98	0
18.2	0
18.42	0
18.64	0
18.86	0
19.08	0
19.3	0
19.52	0
19.74	0
19.96	0
20.18	0
20.4	0
20.62	0
20.84	0
21.06	0
21.28	0
21.5	0
21.72	0
21.94	0
22.16	0
22.38	0
22.6	0
22.82	0
23.04	0
23.26	0
23.48	0
23.7	0
23.92	0
24.14	0
24.36	9.982
24.58	0
24.8	0
25.02	1.797
25.24	0
25.46	0
25.68	0
25.9	0
26.12	0
26.34	0
26.56	0
26.78	0
27	0
27.22	0
27.44	0
27.66	0
27.88	0
28.1	0
28.32	0
28.54	0
28.76	39.522
28.98	93.484
29.2	0.002
29.42	0
29.64	0.724
29.86	0
30.08	8.797
30.3	0.002
30.52	0
30.74	0
30.96	0
31.18	4.784
31.4	0.105
31.62	0
31.84	0
32.06	0
32.28	0
32.5	0
32.72	0
32.94	0
33.16	0
33.38	0
33.6	0
33.82	0
34.04	0
34.26	0
34.48	0
34.7	0
34.92	0
35.14	0.287
35.36	4.509
35.58	0
35.8	0
36.02	0
36.24	0
36.46	0
36.68	0
36.9	0
37.12	0
37.34	0
37.56	0
37.78	0
38	1.678
38.22	0
38.44	0
38.66	1.077
38.88	0.008
39.1	1.194
39.32	8.531
39.54	1.48
39.76	0
39.98	0.148
40.2	0.001
40.42	0
40.64	0
40.86	0
41.08	0
41.3	0
41.52	0
41.74	0
41.96	0
42.18	0
42.4	0
42.62	0
42.84	0.088
43.06	0.012
43.28	0.057
43.5	0.001
43.72	0
43.94	0
44.16	0
44.38	0
44.6	0.156
44.82	0
45.04	0
45.26	0
45.48	0
45.7	0.001
45.92	7.159
46.14	0.003
46.36	0.384
46.58	0
46.8	3.476
47.02	1.271
47.24	0
47.46	0
47.68	1.788
47.9	0
48.12	0
48.34	0
48.56	0
48.78	0
49	0
49.22	0
49.44	0
49.66	0
49.88	8.053
50.1	8.356
50.32	0
50.54	0
50.76	0
50.98	0
51.2	0
51.42	5.076
51.64	0.148
51.86	0
52.08	0
52.3	0.001
52.52	0.458
52.74	2.244
52.96	0
53.18	0.041
53.4	1.298
53.62	0.866
53.84	0
54.06	0.006
54.28	0.268
54.5	0
54.72	0
54.94	0
55.16	0
55.38	0.09
55.6	0.028
55.82	0
56.04	0
56.26	0
56.48	0
56.7	1.807
56.92	0.02
57.14	0
57.36	0
57.58	0.031
57.8	0.849
58.02	0
58.24	0
58.46	0
58.68	0.534
58.9	0.002
59.12	3.335
59.34	0.825
59.56	2.207
59.78	0
60	0.887
60.22	4.926
60.44	0
60.66	0
60.88	0
61.1	0.093
61.32	1.185
61.54	5.539
61.76	0
61.98	0
62.2	0
62.42	0
62.64	1.361
62.86	0.037
63.08	0
63.3	0
63.52	0
63.74	0
63.96	0
64.18	0
64.4	1.151
64.62	0.564
64.84	0.676
65.06	1.028
65.28	0.276
65.5	0.368
65.72	0
65.94	0.55
66.16	0.917
66.38	0
66.6	0
66.82	1.918
67.04	0.317
67.26	0.003
67.48	0
67.7	0
67.92	0.353
68.14	0.278
68.36	0.25
68.58	0
68.8	0
69.02	0.006
69.24	0.016
69.46	0
69.68	0
69.9	0
70.12	6.312
70.34	2.382
70.56	0.015
70.78	0.106
71	0.134
71.22	0.001
71.44	1.488
71.66	1.06
71.88	0
72.1	0
72.32	0.001
72.54	0
72.76	0
72.98	0
73.2	0.372
73.42	0.128
73.64	0
73.86	0
74.08	0
74.3	0
74.52	0.365
74.74	0.172
74.96	0
75.18	0
75.4	0
75.62	0
75.84	0
76.06	0.031
76.28	0.427
76.5	0.25
76.72	0.003
76.94	0.002
77.16	0
77.38	0
77.6	0
77.82	0.675
78.04	0.394
78.26	0
78.48	0.095
78.7	0.047
78.92	0.001
79.14	0
79.36	0
79.58	0.021
79.8	0.036
80.02	0.023
80.24	0
80.46	0.201
80.68	0.62
80.9	0.287
81.12	0.123
81.34	0.022
81.56	0.015
81.78	0
82	0
82.22	0
82.44	0
82.66	0.019
82.88	0.204
83.1	0.022
83.32	0.052
83.54	1.758
83.76	0.279
83.98	0.629
84.2	0.09
84.42	0.001
84.64	0.186
84.86	0.043
85.08	0.004
85.3	0
85.52	0
85.74	0.001
85.96	0.004
86.18	0.149
86.4	0.794
86.62	0.747
86.84	0.059
87.06	0.361
87.28	0.019
87.5	0.004
87.72	0.046
87.94	0.035
88.16	0.286
88.38	0.011
88.6	0
88.82	0
89.04	0.007
89.26	0.001
89.48	0.009
89.7	0.151
89.92	0.129
