Measurement: Powder, Xray Data XY Processed
Mineral: Jeremejevite
Rruff sample: R060533
Ideal chemistry: Al_6_(BO_3_)_5_F_3_
Locality: Erongo Mountains, Nambia
Source: Gemological Institute of America
Description: Pale blue fragments of hexagonal prisms
Diffraction sample description: Powder
Measured chemistry: Al_6.00_(BO_3_)_5_(F_2.22_(OH)_0.78_)_3.00_  ; B and H not measured but estimated by difference and charge balance
Cell parameters: a: 8.5565(1) b: 8.5565(1) c: 8.1781(3) alpha: 90 beta: 90 gamma: 120 volume: 518.53(2) crystal system: hexagonal
x	intensity
5	0
5.22	14.5213
5.44	19.766
5.66	14.0398
5.88	7.11407
6.1	12.6936
6.32	12.2828
6.54	10.8915
6.76	2.59851
6.98	9.15474
7.2	4.53422
7.42	3.01602
7.64	6.341
7.86	0.166264
8.08	5.25558
8.3	5.53403
8.52	11.9005
8.74	10.1658
8.96	2.82283
9.18	6.09815
9.4	7.24705
9.62	3.47335
9.84	8.67429
10.06	4.03797
10.28	1.87753
10.5	2.86616
10.72	5.78625
10.94	1.72389
11.16	2.62518
11.38	4.43576
11.6	3.20155
11.82	20.1808
12.04	11.5087
12.26	4.13037
12.48	1.67494
12.7	14.404
12.92	3.27848
13.14	11.0887
13.36	11.0409
13.58	8.94926
13.8	8.61898
14.02	0.545364
14.24	11.1934
14.46	6.75958
14.68	10.8803
14.9	3.9215
15.12	9.01438
15.34	3.06896
15.56	4.29989
15.78	7.09041
16	2.176
16.22	6.72154
16.44	3.89565
16.66	16.7889
16.88	8.67002
17.1	7.40831
17.32	5.71061
17.54	7.6598
17.76	5.43987
17.98	7.38467
18.2	7.57228
18.42	3.68172
18.64	6.86854
18.86	0.678453
19.08	6.21443
19.3	9.10758
19.52	7.99273
19.74	0.622216
19.96	3.08296
20.18	7.78242
20.4	10.7672
20.62	19.4645
20.84	307.189
21.06	7.25558
21.28	11.0346
21.5	2.53552
21.72	106.829
21.94	5.03132
22.16	7.19006
22.38	7.32971
22.6	1.52596
22.82	10.4347
23.04	15.4676
23.26	3.42878
23.48	436.572
23.7	22.6908
23.92	8.39457
24.14	8.0186
24.36	2.80096
24.58	9.04332
24.8	17.9054
25.02	8.07642
25.24	6.82519
25.46	5.71903
25.68	16.3164
25.9	6.92937
26.12	4.85671
26.34	6.87797
26.56	10.6774
26.78	8.52256
27	5.72893
27.22	3.59373
27.44	5.11238
27.66	11.0793
27.88	1.1367
28.1	14.8361
28.32	2.66625
28.54	3.14233
28.76	3.55264
28.98	6.67485
29.2	1.46982
29.42	1.95944
29.64	10.6632
29.86	17.6784
30.08	1.61695
30.3	12.2148
30.52	12.7908
30.74	10.5086
30.96	8.28492
31.18	10.089
31.4	10.3981
31.62	4.9735
31.84	22.2048
32.06	61.5519
32.28	10.5999
32.5	3.5036
32.72	11.4512
32.94	3.20581
33.16	4.75398
33.38	10.9801
33.6	0.066589
33.82	361.276
34.04	12.4202
34.26	5.19566
34.48	4.94033
34.7	0.224367
34.92	5.67982
35.14	51.8419
35.36	4.78573
35.58	7.10348
35.8	15.1685
36.02	4.44677
36.24	15.0166
36.46	87.4527
36.68	2.51679
36.9	5.51622
37.12	8.06838
37.34	6.26117
37.56	10.8542
37.78	9.47038
38	4.3799
38.22	5.89174
38.44	2.96518
38.66	13.7873
38.88	11.6342
39.1	12.6846
39.32	31.1342
39.54	7.76217
39.76	7.25629
39.98	3.57286
40.2	17.786
40.42	9.39088
40.64	2.82791
40.86	2.5172
41.08	316.066
41.3	19.7758
41.52	5.11669
41.74	6.11978
41.96	2.78393
42.18	8.75114
42.4	0.477936
42.62	13.2947
42.84	79.1937
43.06	1.96473
43.28	7.90625
43.5	12.2971
43.72	49.5046
43.94	16.4494
44.16	205.254
44.38	13.0088
44.6	2.20903
44.82	8.73367
45.04	2.76076
45.26	10.6627
45.48	10.0167
45.7	2.30924
45.92	0.639063
46.14	14.0632
46.36	20.0663
46.58	125.258
46.8	8.07108
47.02	1.36408
47.24	1.9451
47.46	9.56815
47.68	0.936074
47.9	11.3047
48.12	26.5112
48.34	8.32012
48.56	2.85548
48.78	6.64776
49	4.24981
49.22	10.2937
49.44	4.22215
49.66	9.35633
49.88	3.13288
50.1	2.16562
50.32	6.42335
50.54	7.95848
50.76	5.95188
50.98	17.1952
51.2	6.55068
51.42	2.16285
51.64	8.26705
51.86	5.51632
52.08	10.3141
52.3	2.21968
52.52	11.1429
52.74	7.72886
52.96	10.0835
53.18	4.31837
53.4	12.0831
53.62	2.79736
53.84	5.79803
54.06	35.7415
54.28	3.80104
54.5	258.345
54.72	8.84132
54.94	4.82111
55.16	17.1265
55.38	4.14791
55.6	10.6769
55.82	9.80162
56.04	11.817
56.26	3.68791
56.48	5.52353
56.7	12.0662
56.92	20.622
57.14	5.07092
57.36	6.95314
57.58	14.783
57.8	5.25784
58.02	4.37377
58.24	30.6581
58.46	9.28138
58.68	6.97911
58.9	13.4962
59.12	6.86834
59.34	3.29151
59.56	2.66221
59.78	3.88849
60	5.30421
60.22	6.46128
60.44	10.368
60.66	8.37214
60.88	5.23248
61.1	0.078116
61.32	10.8613
61.54	12.0562
61.76	14.2614
61.98	1.62506
62.2	3.70147
62.42	9.40032
62.64	7.36602
62.86	4.59542
63.08	5.50242
63.3	2.35346
63.52	8.2158
63.74	0.012463
63.96	2.31031
64.18	7.64648
64.4	5.4392
64.62	17.2177
64.84	1.07632
65.06	4.0087
65.28	12.8048
65.5	4.00415
65.72	13.7589
65.94	8.58039
66.16	3.41893
66.38	1.13995
66.6	7.41295
66.82	12.5429
67.04	7.53967
67.26	172.549
67.48	97.6971
67.7	0.409913
67.92	5.13269
68.14	2.6958
68.36	9.11587
68.58	10.3914
68.8	33.6532
69.02	22.9623
69.24	1.21823
69.46	0.527019
69.68	4.58538
69.9	8.00446
70.12	1.20576
70.34	1.37567
70.56	9.25676
70.78	5.12692
71	6.17265
71.22	0.654026
71.44	7.69526
71.66	5.46302
71.88	6.30118
72.1	2.92085
72.32	6.1428
72.54	8.30835
72.76	34.3659
72.98	8.49549
73.2	8.64348
73.42	13.0912
73.64	1.76749
73.86	7.02115
74.08	9.12704
74.3	8.32987
74.52	6.57828
74.74	1.71186
74.96	15.6463
75.18	7.53131
75.4	8.38272
75.62	11.1524
75.84	1.84002
76.06	0.633952
76.28	7.32794
76.5	4.34419
76.72	1.03688
76.94	4.62857
77.16	6.53868
77.38	9.38744
77.6	2.35261
77.82	10.747
78.04	2.91687
78.26	5.58743
78.48	23.8299
78.7	17.0935
78.92	3.10715
79.14	0.185479
79.36	1.68254
79.58	10.1651
79.8	7.91026
80.02	0.695327
80.24	14.5929
80.46	24.2468
80.68	6.91631
80.9	6.54096
81.12	0.655787
81.34	4.28057
81.56	12.265
81.78	2.36909
82	29.7069
82.22	17.1425
82.44	3.34422
82.66	1.47093
82.88	11.6855
83.1	5.48752
83.32	5.71358
83.54	4.8192
83.76	8.60972
83.98	1.9449
84.2	9.51285
84.42	8.54911
84.64	4.20317
84.86	3.91117
85.08	2.95055
85.3	6.78655
85.52	10.6761
85.74	8.7262
85.96	17.6883
86.18	10.22
86.4	3.01235
86.62	8.07817
86.84	5.41864
87.06	0.356726
87.28	0.943451
87.5	2.17278
87.72	4.45472
87.94	1.83038
88.16	1.93766
88.38	0.966866
88.6	15.3616
88.82	5.3869
89.04	3.4726
89.26	2.52971
89.48	4.84152
89.7	7.67401
89.92	1.30048
