Measurement: Powder, Xray Data XY Processed
Mineral: Johninnesite
Rruff sample: R060249
Ideal chemistry: Na_2_Mn^2+^_9_Mg_7_(As^5+^O_4_)_2_(Si_6_O_17_)_2_(OH)_8_
Locality: Kombat mine, Kombat, Grootfontein District, Otjozondjupa Region, Namibia
Source: William W. Pinch
Description: Colorless to tan aggregate of bladed crystals associated with rhodonite
Diffraction sample description: Single crystal, powder profile is calculated
Measured chemistry: Na_2.00_Mn^2+^_9.00_(Mg_4.04_Mn^2+^_2.96_)_Î£=7_(As_1.00_O_4_)_2_(Si_6.00_O_17_)_2_(OH)_8_ ; (OH) estimated by difference
Cell parameters: a: 10.463(3) b: 11.037(4) c: 9.624(2) alpha: 107.10(1) beta: 81.11(1) gamma: 111.81(1) volume: 984.9(4) crystal system: triclinic
x	intensity
5	0
5.22	0
5.44	0
5.66	0
5.88	0
6.1	0
6.32	0
6.54	0
6.76	0
6.98	0
7.2	0
7.42	0
7.64	0
7.86	0
8.08	0
8.3	0
8.52	0
8.74	0
8.96	61.775
9.18	2.586
9.4	0
9.62	9.805
9.84	0
10.06	0
10.28	0.137
10.5	0
10.72	0
10.94	0
11.16	0
11.38	0.473
11.6	0
11.82	0
12.04	2.903
12.26	0
12.48	0
12.7	0
12.92	0.404
13.14	0
13.36	0
13.58	1.515
13.8	0
14.02	0
14.24	0
14.46	0
14.68	0.001
14.9	2.222
15.12	0
15.34	0
15.56	0
15.78	0
16	0.009
16.22	0
16.44	0
16.66	0.665
16.88	7.715
17.1	1.105
17.32	0.211
17.54	0
17.76	0
17.98	1.358
18.2	7.835
18.42	0
18.64	0.163
18.86	0
19.08	0.27
19.3	0.359
19.52	0
19.74	0
19.96	0
20.18	0.474
20.4	2.07
20.62	0.001
20.84	0.077
21.06	0.56
21.28	0.003
21.5	0.501
21.72	0.043
21.94	0.576
22.16	0.009
22.38	0.031
22.6	0.191
22.82	24.841
23.04	4.947
23.26	0.009
23.48	0.451
23.7	0
23.92	0
24.14	0
24.36	5.514
24.58	0.002
24.8	0
25.02	0
25.24	0.05
25.46	0.297
25.68	0.227
25.9	2.456
26.12	0.315
26.34	5.993
26.56	0.057
26.78	1.401
27	2.585
27.22	4.462
27.44	0.054
27.66	11.709
27.88	0
28.1	0.043
28.32	0.241
28.54	0.737
28.76	1.852
28.98	1.151
29.2	0.539
29.42	0.784
29.64	0.035
29.86	0.677
30.08	0.632
30.3	3.154
30.52	0
30.74	0
30.96	10.302
31.18	0.567
31.4	0.949
31.62	1.064
31.84	0.012
32.06	0.043
32.28	0.251
32.5	0
32.72	2.287
32.94	0.1
33.16	2.182
33.38	0.169
33.6	74.757
33.82	0.251
34.04	0.203
34.26	1.653
34.48	1.065
34.7	1.926
34.92	9.362
35.14	5.624
35.36	2.327
35.58	0.151
35.8	0.192
36.02	0
36.24	13.458
36.46	1.03
36.68	0.212
36.9	9.37
37.12	2.243
37.34	1.902
37.56	0.856
37.78	1.739
38	1.409
38.22	6.726
38.44	2.36
38.66	2.893
38.88	1.225
39.1	0.025
39.32	0.819
39.54	3.22
39.76	0.004
39.98	0.197
40.2	0.64
40.42	1.294
40.64	3.531
40.86	0.515
41.08	0.242
41.3	2.347
41.52	1.352
41.74	0.784
41.96	0.108
42.18	5.792
42.4	0.233
42.62	2.157
42.84	0.135
43.06	0.757
43.28	0.387
43.5	0.29
43.72	0.133
43.94	0.481
44.16	0.423
44.38	3.637
44.6	2.752
44.82	0.518
45.04	1.015
45.26	3.827
45.48	0.918
45.7	2.132
45.92	0.405
46.14	0.108
46.36	0.289
46.58	2.366
46.8	0.89
47.02	2.156
47.24	0.554
47.46	0.267
47.68	0.324
47.9	0.298
48.12	0.449
48.34	0.603
48.56	0.393
48.78	1.905
49	4.185
49.22	0.269
49.44	0.35
49.66	0.481
49.88	0.828
50.1	0.808
50.32	0.4
50.54	1.249
50.76	2.977
50.98	5.224
51.2	0.03
51.42	0.126
51.64	1.765
51.86	0.709
52.08	1.355
52.3	0.755
52.52	0.463
52.74	0.447
52.96	1.943
53.18	5.626
53.4	1.046
53.62	0.902
53.84	3.786
54.06	2.512
54.28	0.494
54.5	0.382
54.72	1.261
54.94	0.385
55.16	0.519
55.38	0.242
55.6	0.843
55.82	2.217
56.04	0.845
56.26	1.697
56.48	0.479
56.7	3.638
56.92	3.273
57.14	0.253
57.36	8.619
57.58	11.967
57.8	4.627
58.02	2.753
58.24	3.61
58.46	1.165
58.68	0.289
58.9	0.157
59.12	0.153
59.34	0.931
59.56	0.522
59.78	4.491
60	6.058
60.22	14.162
60.44	5.532
60.66	0.51
60.88	0.786
61.1	0.066
61.32	0.241
61.54	0.696
61.76	1.117
61.98	0.69
62.2	0.756
62.42	0.275
62.64	1.741
62.86	0.604
63.08	0.54
63.3	0.539
63.52	0.463
63.74	0.444
63.96	0.239
64.18	0.375
64.4	1.245
64.62	0.993
64.84	3.882
65.06	1.29
65.28	1.537
65.5	2.336
65.72	1.229
65.94	0.632
66.16	0.708
66.38	0.091
66.6	0.471
66.82	0.815
67.04	2.245
67.26	1.149
67.48	0.498
67.7	0.625
67.92	0.339
68.14	0.016
68.36	0.934
68.58	1.491
68.8	3.85
69.02	4.19
69.24	1.46
69.46	0.715
69.68	2.984
69.9	3.271
70.12	1.395
70.34	1.128
70.56	1.048
70.78	0.776
71	0.451
71.22	0.503
71.44	0.381
71.66	0.288
71.88	1.541
72.1	1.241
72.32	0.596
72.54	0.29
72.76	2.566
72.98	1.443
73.2	0.532
73.42	0.392
73.64	0.802
73.86	0.746
74.08	0.426
74.3	0.573
74.52	0.283
74.74	0.158
74.96	0.722
75.18	0.527
75.4	1.453
75.62	0.941
75.84	0.237
76.06	1.502
76.28	1.323
76.5	0.356
76.72	0.082
76.94	0.333
77.16	0.486
77.38	0.307
77.6	0.472
77.82	0.412
78.04	0.761
78.26	0.663
78.48	0.307
78.7	0.24
78.92	1.759
79.14	1.109
79.36	0.107
79.58	1.424
79.8	0.858
80.02	0.283
80.24	1.577
80.46	0.658
80.68	0.189
80.9	0.432
81.12	0.321
81.34	0.119
81.56	0.337
81.78	0.47
82	0.619
82.22	0.818
82.44	1.15
82.66	1.302
82.88	0.534
83.1	0.384
83.32	0.491
83.54	0.691
83.76	0.835
83.98	0.353
84.2	0.295
84.42	1.095
84.64	1.328
84.86	0.887
85.08	0.734
85.3	0.482
85.52	0.378
85.74	0.215
85.96	0.278
86.18	0.304
86.4	0.143
86.62	0.182
86.84	0.198
87.06	0.276
87.28	0.27
87.5	0.119
87.72	0.29
87.94	0.741
88.16	0.846
88.38	0.65
88.6	0.183
88.82	0.183
89.04	0.577
89.26	0.471
89.48	0.547
89.7	0.6
89.92	0.193
