Measurement: Powder, Xray Data XY Processed
Mineral: Karibibite
Rruff sample: R060307
Ideal chemistry: Fe^3+^_3_(As^3+^O_2_)_4_(As^3+^_2_O_5_)(OH)
Locality: Urucum, Municipio de Galilea, Minas Gerais, Brazil
Source: Michael Scott
Description: Yellowish-brown acicular crystals lining cavities
Diffraction sample description: Powder, using Mo radiation
x	intensity
5.68	0
5.8	34.6709
5.92	27.9311
6.04	64.4622
6.16	485.308
6.28	1313.03
6.4	1758.68
6.52	1186.82
6.64	460.085
6.76	71.5388
6.88	8.30102
7	14.8428
7.12	7.91553
7.24	75.313
7.36	183.991
7.48	288.178
7.6	265.057
7.72	159.466
7.84	54.3918
7.96	28.4363
8.08	0.962646
8.2	76.5259
8.32	257.777
8.44	468.499
8.56	530.256
8.68	502.466
8.8	373.591
8.92	280.915
9.04	201.494
9.16	165.374
9.28	127.159
9.4	43.0874
9.52	28.8884
9.64	39.8005
9.76	3.198
9.88	16.136
10	44.7151
10.12	113.46
10.24	123.019
10.36	110.386
10.48	65.5784
10.6	53.905
10.72	24.4341
10.84	37.7625
10.96	70.3154
11.08	118.67
11.2	219.268
11.32	344.515
11.44	463.661
11.56	574.588
11.68	596.595
11.8	546.261
11.92	685.063
12.04	919.883
12.16	921.906
12.28	763.836
12.4	646.336
12.52	858.043
12.64	1691.91
12.76	2602.07
12.88	2774.8
13	2352.21
13.12	2178.41
13.24	2309.64
13.36	2151.62
13.48	1571.26
13.6	988.48
13.72	677.547
13.84	572.525
13.96	575.167
14.08	533.132
14.2	558.552
14.32	659.326
14.44	815.576
14.56	873.864
14.68	808.036
14.8	566.185
14.92	404.133
15.04	487.451
15.16	722.994
15.28	725.378
15.4	456.514
15.52	168.331
15.64	50.6736
15.76	30.9358
15.88	115.939
16	282.373
16.12	325.352
16.24	201.195
16.36	40.5835
16.48	31.082
16.6	11.6262
16.72	151.231
16.84	457.136
16.96	838.989
17.08	1007.72
17.2	949.996
17.32	735.595
17.44	454.873
17.56	185.322
17.68	6.68774
17.8	51.427
17.92	6.38769
18.04	95.6997
18.16	138.857
18.28	102.327
18.4	85.5632
18.52	54.5884
18.64	31.2044
18.76	47.115
18.88	65.0945
19	160.827
19.12	312.819
19.24	350.975
19.36	255.72
19.48	140.9
19.6	37.2615
19.72	19.5051
19.84	8.55859
19.96	4.16113
20.08	3.25659
20.2	3.35425
20.32	0.3479
20.44	14.5696
20.56	75.6728
20.68	192.898
20.8	351.76
20.92	499.736
21.04	461.059
21.16	369.436
21.28	288.078
21.4	253.439
21.52	180.346
21.64	107.575
21.76	63.9309
21.88	49.4646
22	118.035
22.12	155.689
22.24	190.738
22.36	278.894
22.48	410.834
22.6	476.1
22.72	386.716
22.84	235.196
22.96	168.372
23.08	179.59
23.2	283.701
23.32	373.398
23.44	393.75
23.56	329.449
23.68	212.762
23.8	99.436
23.92	15.0723
24.04	37.2222
24.16	51.3599
24.28	4.09863
24.4	161.697
24.52	328.193
24.64	414.152
24.76	355.948
24.88	322.328
25	239.202
25.12	152.552
25.24	131.488
25.36	153.567
25.48	193.64
25.6	218.214
25.72	184.239
25.84	164.145
25.96	168.246
26.08	256.44
26.2	425.263
26.32	645.567
26.44	804.115
26.56	721.328
26.68	513.379
26.8	443.952
26.92	438.185
27.04	364.167
27.16	199.829
27.28	75.5073
27.4	70.6782
27.52	98.5796
27.64	117.614
27.76	122.142
27.88	98.844
28	88.4219
28.12	72.344
28.24	179.872
28.36	442.846
28.48	627.238
28.6	604.795
28.72	375.938
28.84	205.603
28.96	152.608
29.08	187.303
29.2	221.103
29.32	242.357
29.44	247.054
29.56	220.691
29.68	163.785
29.8	99.4331
29.92	58.7961
30.04	52.5984
30.16	103.81
30.28	181.931
30.4	264.978
30.52	259.111
30.64	175.098
30.76	102.624
30.88	63.7041
31	32.0044
31.12	18.9211
31.24	16.5618
31.36	73.9834
31.48	57.206
31.6	56.4922
31.72	64.4512
31.84	79.1892
31.96	87.7532
32.08	78.3599
32.2	44.5242
32.32	18.6482
32.44	5.44556
32.56	8.77295
32.68	24.5122
32.8	4.56323
32.92	6.74683
33.04	32.6462
33.16	14.0557
33.28	20.1892
33.4	0.865967
33.52	10.8523
33.64	32.7607
33.76	44.353
33.88	114.617
34	169.64
34.12	201.716
34.24	155.154
34.36	133.745
34.48	84.1589
34.6	64.8538
34.72	84.509
34.84	89.0229
34.96	80.9407
35.08	52.0608
35.2	51.4875
35.32	46.9409
35.44	91.9377
35.56	150.913
35.68	133.809
35.8	112.337
35.92	41.7368
36.04	12.2165
36.16	3.85596
36.28	0.938477
36.4	10.2082
36.52	28.1904
36.64	20.301
36.76	13.9331
36.88	24.8193
37	52.7488
37.12	51.0642
37.24	63.4092
37.36	65.5857
37.48	39.5349
37.6	13.5969
37.72	2.94678
37.84	7.52905
37.96	18.5161
38.08	33.5105
38.2	39.2715
38.32	29.4121
38.44	64.6384
38.56	105.532
38.68	124.67
38.8	127.545
38.92	118.969
39.04	83.3328
39.16	57.3523
39.28	39.679
39.4	30.6328
39.52	23.2344
39.64	17.1343
39.76	14.1086
39.88	1.81323
40	11.9497
40.12	11.4214
40.24	19.0791
40.36	26.5652
40.48	40.376
40.6	44.0215
40.72	64.1743
40.84	63.2556
40.96	83.2981
41.08	68.1223
41.2	37.8071
41.32	38.2874
41.44	47.0388
41.56	58.7883
41.68	64.4817
41.8	72.8179
41.92	79.9763
42.04	75.7488
42.16	69.9924
42.28	64.6057
42.4	66.572
42.52	62.1504
42.64	47.698
42.76	61.7004
42.88	97.219
43	104.816
43.12	97.5935
43.24	96.3003
43.36	64.6172
43.48	52.3076
43.6	27.9685
43.72	41.1677
43.84	39.1685
43.96	56.1233
44.08	58.4849
44.2	63.8726
44.32	63.3955
44.44	64.1489
44.56	74.7568
44.68	43.7964
44.8	22.9978
44.92	10.779
45.04	11.5684
45.16	8.9751
45.28	4.89771
45.4	21.0898
45.52	22.572
45.64	4.21997
45.76	26.9331
45.88	8.95386
46	2.53687
46.12	13.3984
46.24	40.9243
46.36	57.3984
46.48	62.3047
46.6	41.8291
46.72	26.6321
46.84	29.5061
46.96	24.0281
47.08	7.33765
47.2	17.3755
47.32	13.6565
47.44	2.82544
47.56	4.94946
47.68	9.32129
47.8	0.182861
47.92	28.6379
48.04	27.062
48.16	16.5217
48.28	31.2756
48.4	46.4202
48.52	63.1362
48.64	45.9775
48.76	43.2835
48.88	19.5144
49	28.9514
49.12	19.5686
49.24	19.574
49.36	31.8804
49.48	37.3474
49.6	55.2427
49.72	62.7056
49.84	57.1272
49.96	41.8227
50.08	45.3501
50.2	37.9185
50.32	30.5137
50.44	65.3169
50.56	52.9297
50.68	57.7685
50.8	37.4973
50.92	55.6958
51.04	41.2756
51.16	18.1111
51.28	1.43603
51.4	4.01758
51.52	22.2646
51.64	22.7515
51.76	3.04688
51.88	6.29541
