Measurement: Powder, Xray Data XY Processed
Mineral: Kasolite
Rruff sample: R060479
Ideal chemistry: Pb^2+^(U^6+^O_2_)SiO_4_H_2_O
Locality: Musonoi Extension, Shaba Province, Zaire
Source: Michael Scott
Description: Yellowish-orange prismatic single crystals
Diffraction sample description: Single crystal, powder profile is calculated
Cell parameters: a: 13.268(6) b: 6.919(2) c: 6.691(3) alpha: 90 beta: 105.11(2) gamma: 90 volume: 593.0(3) crystal system: monoclinic
x	intensity
5	0
5.22	0
5.44	0
5.66	0
5.88	0
6.1	0
6.32	0
6.54	0
6.76	0
6.98	0
7.2	0
7.42	0
7.64	0
7.86	0
8.08	0
8.3	0
8.52	0
8.74	0
8.96	0
9.18	0
9.4	0
9.62	0
9.84	0
10.06	0
10.28	0
10.5	0
10.72	0
10.94	0
11.16	0
11.38	0
11.6	0
11.82	0
12.04	0
12.26	0
12.48	0
12.7	0
12.92	0
13.14	0
13.36	0
13.58	30.996
13.8	17.178
14.02	0
14.24	0
14.46	98.232
14.68	0
14.9	0
15.12	0
15.34	0
15.56	0
15.78	0
16	0
16.22	0
16.44	0
16.66	0.003
16.88	0.867
17.1	0
17.32	0
17.54	0
17.76	0
17.98	0
18.2	0
18.42	0
18.64	16.963
18.86	1.403
19.08	0
19.3	0
19.52	0
19.74	0
19.96	0
20.18	0
20.4	0
20.62	0
20.84	0
21.06	53.847
21.28	0.002
21.5	0.005
21.72	4.354
21.94	0
22.16	0
22.38	0
22.6	0
22.82	0
23.04	0
23.26	0
23.48	0
23.7	0
23.92	0
24.14	0
24.36	13.562
24.58	0
24.8	0
25.02	0.002
25.24	33.086
25.46	0.089
25.68	3.146
25.9	0
26.12	0
26.34	0
26.56	8.468
26.78	0
27	0
27.22	7.465
27.44	30.901
27.66	14.94
27.88	0.021
28.1	0
28.32	0
28.54	0
28.76	0
28.98	6.871
29.2	9.275
29.42	0.175
29.64	0
29.86	0
30.08	0
30.3	0.711
30.52	11.959
30.74	26.42
30.96	0
31.18	0
31.4	0
31.62	0
31.84	0
32.06	0
32.28	0
32.5	13.924
32.72	14.661
32.94	0
33.16	4.439
33.38	0
33.6	0.535
33.82	2.33
34.04	2.512
34.26	0
34.48	0
34.7	0
34.92	0
35.14	0
35.36	0
35.58	0
35.8	0
36.02	0.043
36.24	1.286
36.46	6.821
36.68	0.787
36.9	0
37.12	9.279
37.34	2.504
37.56	0
37.78	2.392
38	5.813
38.22	0.657
38.44	0
38.66	0
38.88	0
39.1	0
39.32	0.001
39.54	0.287
39.76	0.055
39.98	0
40.2	0.003
40.42	0.064
40.64	0.134
40.86	2.07
41.08	0.107
41.3	22.012
41.52	3.554
41.74	0
41.96	0.002
42.18	1.854
42.4	2.925
42.62	0.299
42.84	4.557
43.06	4.331
43.28	0.73
43.5	5.922
43.72	3.879
43.94	0.005
44.16	8.677
44.38	4.291
44.6	0.461
44.82	0.439
45.04	0.086
45.26	0
45.48	0
45.7	0.059
45.92	1.988
46.14	8.766
46.36	7.932
46.58	0.63
46.8	3.601
47.02	1.618
47.24	2.596
47.46	0.001
47.68	3.488
47.9	2.29
48.12	11.277
48.34	30.232
48.56	0.181
48.78	0.304
49	1.454
49.22	3.226
49.44	3.812
49.66	0.542
49.88	6.409
50.1	0.473
50.32	0
50.54	0
50.76	0
50.98	0
51.2	0
51.42	1.257
51.64	0.069
51.86	0.015
52.08	0.67
52.3	8.103
52.52	11.15
52.74	0.899
52.96	0.008
53.18	0.547
53.4	0.693
53.62	0.967
53.84	1.209
54.06	0
54.28	0.01
54.5	8.302
54.72	4.85
54.94	1.647
55.16	0.612
55.38	1.155
55.6	1.798
55.82	0.018
56.04	0.035
56.26	0.924
56.48	1.024
56.7	2.472
56.92	0.1
57.14	0.986
57.36	0.15
57.58	4.739
57.8	3.685
58.02	0.516
58.24	0.77
58.46	0.295
58.68	2.671
58.9	2.508
59.12	0.019
59.34	0
59.56	0
59.78	1.853
60	0.166
60.22	2.619
60.44	1.633
60.66	0.733
60.88	0.036
61.1	0.507
61.32	0.015
61.54	0.654
61.76	0.677
61.98	0.25
62.2	0.004
62.42	0.724
62.64	1.315
62.86	3.015
63.08	1.344
63.3	5.209
63.52	4.087
63.74	2.635
63.96	3.164
64.18	1.739
64.4	0.212
64.62	0.391
64.84	0.057
65.06	0.629
65.28	0.14
65.5	0.243
65.72	0.032
65.94	0.012
66.16	0.001
66.38	0.006
66.6	1.767
66.82	1.889
67.04	0.976
67.26	0.994
67.48	1.161
67.7	0.701
67.92	0.023
68.14	0.858
68.36	1.268
68.58	0.674
68.8	0.31
69.02	1.774
69.24	1.047
69.46	0.843
69.68	0.723
69.9	0.351
70.12	0.139
70.34	0.285
70.56	0.704
70.78	0.954
71	0.329
71.22	0.851
71.44	1.493
71.66	0.699
71.88	0.054
72.1	0.754
72.32	1.437
72.54	0.652
72.76	0.159
72.98	0.06
73.2	0.012
73.42	0.083
73.64	0.579
73.86	0.598
74.08	1.097
74.3	0.51
74.52	0.009
74.74	0.001
74.96	2.427
75.18	1.803
75.4	0.357
75.62	1.818
75.84	1.202
76.06	0.59
76.28	2.273
76.5	1.123
76.72	0.75
76.94	0.676
77.16	0.591
77.38	0.323
77.6	0.328
77.82	0.121
78.04	0.143
78.26	0.063
78.48	0.131
78.7	0.085
78.92	0.007
79.14	0.062
79.36	0.145
79.58	0.767
79.8	1.028
80.02	0.405
80.24	0.012
80.46	0.233
80.68	0.581
80.9	1.008
81.12	0.667
81.34	1.913
81.56	0.657
81.78	0.122
82	0.435
82.22	0.271
82.44	0.177
82.66	0.67
82.88	0.82
83.1	0.318
83.32	0.073
83.54	0.482
83.76	0.402
83.98	3.235
84.2	3.014
84.42	0.921
84.64	0.279
84.86	0.469
85.08	0.304
85.3	0.071
85.52	0.051
85.74	0.284
85.96	0.166
86.18	1.423
86.4	0.637
86.62	0.077
86.84	0.021
87.06	0.895
87.28	0.796
87.5	0.442
87.72	0.016
87.94	0.499
88.16	1.671
88.38	0.975
88.6	0.041
88.82	0.865
89.04	0.661
89.26	0.789
89.48	0.657
89.7	1.296
89.92	1.207
