Measurement: Powder, Xray Data XY Processed
Mineral: Kenoargentotetrahedrite-(Fe)
Rruff sample: R061081
Ideal chemistry: Ag^1+^_6_(Cu^1+^_4_Fe^2+^_2_)Sb_4_S^2-^_12_[box]
Locality: Sadie mine, Elsa, Yukon, Canada
Source: Lloyd Twaites
Description: Dark gray metallic massive
Diffraction sample description: Powder
Cell parameters: a: 10.6026(1) b: 10.6026(1) c: 10.6026(1) alpha: 90 beta: 90 gamma: 90 volume: 1191.91(4) crystal system: cubic
x	intensity
5	0
5.22	2.69114
5.44	1.06804
5.66	1.28848
5.88	12.0264
6.1	4.9922
6.32	13.2079
6.54	12.5828
6.76	19.5589
6.98	10.5969
7.2	6.47506
7.42	5.49964
7.64	5.81903
7.86	3.44796
8.08	1.8655
8.3	4.85849
8.52	5.85295
8.74	13.9545
8.96	5.9843
9.18	11.9578
9.4	15.0084
9.62	12.9198
9.84	6.8795
10.06	2.69914
10.28	6.32507
10.5	9.54052
10.72	11.1588
10.94	4.1682
11.16	18.1305
11.38	1.72204
11.6	9.08639
11.82	178.154
12.04	14.4423
12.26	7.59277
12.48	12.6316
12.7	7.13559
12.92	5.92644
13.14	2.9888
13.36	3.06324
13.58	18.1451
13.8	2.98323
14.02	3.97624
14.24	11.0661
14.46	4.87936
14.68	7.14407
14.9	11.0796
15.12	15.3687
15.34	4.85735
15.56	5.98902
15.78	2.94694
16	20.8435
16.22	2.06025
16.44	12.8129
16.66	14.8156
16.88	13.0592
17.1	6.30737
17.32	0.446859
17.54	19.0114
17.76	5.82841
17.98	7.66118
18.2	0.074654
18.42	8.91146
18.64	0.241831
18.86	2.51752
19.08	6.47702
19.3	4.85881
19.52	5.49212
19.74	2.40553
19.96	12.1617
20.18	6.2696
20.4	12.5832
20.62	14.382
20.84	13.3509
21.06	6.68606
21.28	10.9959
21.5	12.0813
21.72	10.0275
21.94	17.2093
22.16	14.011
22.38	4.01104
22.6	0.745066
22.82	0.726217
23.04	1.43803
23.26	9.16422
23.48	8.88244
23.7	59.7561
23.92	4.51928
24.14	6.45009
24.36	1.2395
24.58	6.0294
24.8	1.22126
25.02	5.61221
25.24	10.6665
25.46	8.06824
25.68	0.836864
25.9	5.9453
26.12	11.6554
26.34	21.988
26.56	17.8031
26.78	11.2344
27	3.05654
27.22	8.80869
27.44	6.45859
27.66	3.67379
27.88	14.0417
28.1	9.31063
28.32	17.4415
28.54	22.4608
28.76	17.476
28.98	54.1579
29.2	1006.59
29.42	63.5518
29.64	19.0288
29.86	6.26985
30.08	14.74
30.3	3.56161
30.52	7.80802
30.74	12.6676
30.96	16.1383
31.18	7.67892
31.4	2.73492
31.62	46.2604
31.84	16.142
32.06	6.78356
32.28	1.56244
32.5	7.84917
32.72	10.6385
32.94	5.49181
33.16	7.12989
33.38	5.11876
33.6	3.84805
33.82	216.4
34.04	23.5853
34.26	8.42863
34.48	14.9122
34.7	8.94572
34.92	17.1599
35.14	3.58752
35.36	20.9289
35.58	10.8638
35.8	15.7739
36.02	87.0074
36.24	3.27912
36.46	4.23977
36.68	0.379383
36.9	10.1324
37.12	8.28693
37.34	10.2012
37.56	9.00881
37.78	15.0427
38	7.97461
38.22	4.00601
38.44	7.09163
38.66	11.13
38.88	4.99299
39.1	6.44609
39.32	10.5731
39.54	18.4774
39.76	12.609
39.98	30.6719
40.2	11.5397
40.42	9.57143
40.64	8.5787
40.86	6.6111
41.08	12.184
41.3	10.3565
41.52	18.0747
41.74	11.722
41.96	13.72
42.18	12.0134
42.4	12.8296
42.62	5.83291
42.84	4.64408
43.06	6.51406
43.28	16.4186
43.5	167.912
43.72	23.861
43.94	2.40715
44.16	6.02169
44.38	0.159031
44.6	1.60631
44.82	6.53014
45.04	0.786905
45.26	13.6773
45.48	5.13014
45.7	15.9191
45.92	9.56757
46.14	5.09539
46.36	5.40313
46.58	7.39502
46.8	15.8286
47.02	44.2982
47.24	4.65773
47.46	18.942
47.68	2.63969
47.9	7.67289
48.12	12.4806
48.34	27.1579
48.56	369.699
48.78	59.2718
49	17.7853
49.22	32.8668
49.44	3.90972
49.66	19.4416
49.88	9.06677
50.1	24.9779
50.32	11.0456
50.54	0.430796
50.76	2.2848
50.98	7.2464
51.2	4.15977
51.42	14.3722
51.64	14.1323
51.86	0.799328
52.08	1.82004
52.3	8.69916
52.52	14.3657
52.74	14.1631
52.96	9.35185
53.18	47.2668
53.4	28.4386
53.62	8.30859
53.84	14.2771
54.06	9.95692
54.28	9.76094
54.5	6.94617
54.72	28.9212
54.94	16.0614
55.16	3.32984
55.38	2.3609
55.6	16.8081
55.82	14.0295
56.04	3.627
56.26	7.07452
56.48	12.6823
56.7	6.58893
56.92	11.2357
57.14	18.0132
57.36	14.6737
57.58	92.8679
57.8	118.117
58.02	18.5067
58.24	7.07441
58.46	17.7452
58.68	11.3598
58.9	2.64262
59.12	17.0126
59.34	9.26653
59.56	3.52287
59.78	10.9699
60	14.9762
60.22	4.0924
60.44	31.3844
60.66	19.5724
60.88	11.6837
61.1	11.3628
61.32	6.34711
61.54	10.2161
61.76	0.719206
61.98	11.668
62.2	6.65958
62.42	9.63566
62.64	2.22302
62.86	8.61819
63.08	4.55758
63.3	8.82778
63.52	10.8225
63.74	4.01223
63.96	9.31632
64.18	3.28933
64.4	4.12898
64.62	4.34498
64.84	12.3484
65.06	3.81078
65.28	5.27208
65.5	12.4759
65.72	12.8105
65.94	8.90923
66.16	11.0071
66.38	0.372337
66.6	1.2323
66.82	11.3728
67.04	15.5152
67.26	7.27445
67.48	10.4248
67.7	10.3894
67.92	4.84912
68.14	6.04119
68.36	7.78486
68.58	4.82369
68.8	13.8419
69.02	11.0981
69.24	1.43518
69.46	10.0297
69.68	10.3363
69.9	20.2519
70.12	4.88813
70.34	9.70559
70.56	6.08973
70.78	0.937782
71	11.6691
71.22	0.58556
71.44	3.56632
71.66	7.00208
71.88	7.03596
72.1	19.9198
72.32	20.143
72.54	21.4124
72.76	4.56252
72.98	1.19711
73.2	17.7169
73.42	3.88891
73.64	6.29863
73.86	1.35485
74.08	5.06136
74.3	6.99513
74.52	14.8831
74.74	5.50957
74.96	10.418
75.18	7.30827
75.4	5.69918
75.62	11.1326
75.84	20.8006
76.06	1.04468
76.28	11.955
76.5	3.08658
76.72	7.0262
76.94	4.58194
77.16	14.7042
77.38	51.7296
77.6	29.8132
77.82	0.963625
78.04	13.3628
78.26	15.4667
78.48	27.9143
78.7	25.0536
78.92	16.2379
79.14	10.4666
79.36	14.4098
79.58	1.87012
79.8	5.09466
80.02	5.47514
80.24	1.77731
80.46	11.5781
80.68	17.7974
80.9	0.708841
81.12	10.1992
81.34	14.1142
81.56	10.5909
81.78	8.44711
82	6.30814
82.22	15.2067
82.44	11.8591
82.66	15.0242
82.88	1.24248
83.1	1.19575
83.32	13.4582
83.54	6.66172
83.76	20.835
83.98	3.97915
84.2	18.0967
84.42	5.74946
84.64	12.0731
84.86	10.1747
85.08	9.16006
85.3	13.0805
85.52	16.0315
85.74	1.07535
85.96	2.81795
86.18	15.6888
86.4	17.4581
86.62	15.0612
86.84	10.9868
87.06	3.96631
87.28	9.80078
87.5	20.2678
87.72	12.4533
87.94	4.10557
88.16	10.8696
88.38	9.9303
88.6	10.7957
88.82	9.67922
89.04	4.48477
89.26	2.46071
89.48	15.229
89.7	8.35218
89.92	8.07044
