Measurement: Powder, Xray Data XY Processed
Mineral: Kentrolite
Rruff sample: R060245
Ideal chemistry: Pb^2+^_2_Mn^3+^_2_O_2_(Si_2_O_7_)
Locality: Percha Creek area, Hillsboro District, Sierra County, New Mexico, USA
Source: William W. Pinch
Description: Dark-purple colored single crystals associated with orange colored prismatic vanadinite and calcite
Diffraction sample description: Single crystal, powder profile is calculated
Measured chemistry: Pb_2.00_(Mn^3+^_1.54_Fe^3+^_0.36_Al_0.10_)_Î£=2_O_2_Si_2.00_O_7_
Cell parameters: a: 6.971(4) b: 11.037(4) c: 9.930(6) alpha: 90 beta: 90 gamma: 90 volume: 764.0(11) crystal system: orthorhombic
x	intensity
5	0
5.22	0
5.44	0
5.66	0
5.88	0
6.1	0
6.32	0
6.54	0
6.76	0
6.98	0
7.2	0
7.42	0
7.64	0
7.86	0
8.08	0
8.3	0
8.52	0
8.74	0
8.96	0
9.18	0
9.4	0
9.62	0
9.84	0
10.06	0
10.28	0
10.5	0
10.72	0
10.94	0
11.16	0
11.38	0
11.6	0
11.82	0
12.04	0
12.26	0
12.48	0
12.7	0
12.92	0
13.14	0
13.36	0
13.58	0
13.8	0
14.02	0
14.24	0
14.46	0
14.68	0
14.9	0
15.12	0.099
15.34	0
15.56	0
15.78	0
16	15.517
16.22	0
16.44	0
16.66	0
16.88	0
17.1	0
17.32	0
17.54	5.943
17.76	0.414
17.98	0.334
18.2	0
18.42	1.981
18.64	0
18.86	0
19.08	0
19.3	0
19.52	0
19.74	0
19.96	0
20.18	0
20.4	0
20.62	0
20.84	0
21.06	0
21.28	0
21.5	0
21.72	0
21.94	0.802
22.16	0
22.38	1.633
22.6	0
22.82	0
23.04	0
23.26	0
23.48	1.289
23.7	0
23.92	0
24.14	34.853
24.36	0
24.58	0
24.8	0
25.02	0
25.24	0
25.46	2.003
25.68	0.572
25.9	0
26.12	0
26.34	0
26.56	0
26.78	0
27	0
27.22	0.006
27.44	47.225
27.66	0
27.88	0
28.1	0
28.32	9.205
28.54	0
28.76	0.097
28.98	0.844
29.2	0
29.42	0
29.64	0
29.86	0
30.08	0
30.3	26.515
30.52	0
30.74	0
30.96	100
31.18	0.001
31.4	31.987
31.62	22.378
31.84	0.011
32.06	0
32.28	0
32.5	0.86
32.72	0
32.94	49.888
33.16	0
33.38	0
33.6	0.31
33.82	1.784
34.04	0.159
34.26	0.001
34.48	0
34.7	0
34.92	0
35.14	0
35.36	9.387
35.58	0.057
35.8	0
36.02	0.009
36.24	5.576
36.46	0
36.68	1.279
36.9	0
37.12	0.001
37.34	2.473
37.56	0
37.78	0
38	0
38.22	0
38.44	4.234
38.66	0.032
38.88	4.56
39.1	0
39.32	0.023
39.54	1.468
39.76	0.208
39.98	0.097
40.2	0
40.42	0
40.64	1.967
40.86	0.087
41.08	3.213
41.3	0
41.52	0
41.74	2.742
41.96	0.507
42.18	0
42.4	0
42.62	12.537
42.84	2.064
43.06	10.572
43.28	2.166
43.5	0
43.72	0.661
43.94	0.078
44.16	0
44.38	0
44.6	0.008
44.82	3.812
45.04	0.242
45.26	0.01
45.48	0.001
45.7	4.264
45.92	2.952
46.14	7.256
46.36	0.416
46.58	0
46.8	5.441
47.02	3.884
47.24	0.429
47.46	0
47.68	0
47.9	0.427
48.12	0
48.34	21.706
48.56	9.191
48.78	2.249
49	0
49.22	0
49.44	0.327
49.66	1.412
49.88	23.837
50.1	0.451
50.32	11.038
50.54	2.285
50.76	0.407
50.98	0.001
51.2	0.078
51.42	0.273
51.64	0.47
51.86	0
52.08	0.001
52.3	1.504
52.52	2.013
52.74	0.001
52.96	0.142
53.18	1.928
53.4	0
53.62	0
53.84	0.016
54.06	12.239
54.28	2.928
54.5	0.026
54.72	1.101
54.94	0.08
55.16	0.091
55.38	0.374
55.6	0.329
55.82	5.897
56.04	0.591
56.26	0.022
56.48	2.997
56.7	3.979
56.92	0.466
57.14	7.556
57.36	2.257
57.58	2.686
57.8	0.821
58.02	0.254
58.24	0.121
58.46	0.167
58.68	0.357
58.9	0.566
59.12	0.391
59.34	1.218
59.56	0.592
59.78	1.292
60	1.068
60.22	1.245
60.44	0.001
60.66	0.254
60.88	0.687
61.1	0.205
61.32	0
61.54	0
61.76	1.272
61.98	5.737
62.2	3.11
62.42	0.469
62.64	0.281
62.86	0.243
63.08	0.103
63.3	2.299
63.52	7.617
63.74	6.635
63.96	0.524
64.18	0
64.4	0.156
64.62	0.578
64.84	0.177
65.06	0
65.28	0.526
65.5	0.808
65.72	0.97
65.94	0.647
66.16	0.521
66.38	0.022
66.6	0
66.82	0.003
67.04	3.341
67.26	1.647
67.48	0.045
67.7	0.044
67.92	8.114
68.14	2.749
68.36	0.595
68.58	0.089
68.8	0.068
69.02	0.598
69.24	0.097
69.46	0.013
69.68	1.53
69.9	1.034
70.12	0.281
70.34	0.113
70.56	0.031
70.78	1.431
71	0.962
71.22	0.272
71.44	0.455
71.66	0.184
71.88	0.001
72.1	0.542
72.32	0.782
72.54	0.638
72.76	0.214
72.98	0.005
73.2	0.08
73.42	0.03
73.64	0
73.86	0.75
74.08	0.544
74.3	0.922
74.52	0.934
74.74	0.28
74.96	0.122
75.18	0.81
75.4	0.823
75.62	0.222
75.84	0.004
76.06	0.026
76.28	0.171
76.5	0.363
76.72	1.336
76.94	1.04
77.16	0.936
77.38	0.319
77.6	0.004
77.82	0.495
78.04	0.191
78.26	0
78.48	0.006
78.7	1.503
78.92	1.145
79.14	0.097
79.36	0.211
79.58	2.851
79.8	1.206
80.02	1.383
80.24	0.805
80.46	0.189
80.68	0.053
80.9	1.444
81.12	0.488
81.34	1.295
81.56	0.524
81.78	0.125
82	0.074
82.22	0.012
82.44	0.713
82.66	0.474
82.88	0.075
83.1	0.564
83.32	0.462
83.54	0.562
83.76	0.282
83.98	0.321
84.2	0.507
84.42	0.448
84.64	1.97
84.86	0.475
85.08	0.021
85.3	0.078
85.52	2.923
85.74	1.11
85.96	0.101
86.18	0.209
86.4	0.033
86.62	0.831
86.84	0.605
87.06	0.045
87.28	0.064
87.5	0.103
87.72	0.045
87.94	0.119
88.16	0.031
88.38	0.173
88.6	0.248
88.82	1.06
89.04	0.139
89.26	0.002
89.48	0.206
89.7	0.307
89.92	1.139
