Measurement: Powder, Xray Data XY Processed
Mineral: Kidwellite
Rruff sample: R060324
Ideal chemistry: NaFe^3+^_9+x_(PO_4_)_6_(OH)_11_3H_2_O (x  1/3)
Locality: York mine, Polk County, Arkansas, USA
Source: Michael Scott
Description: Light green radiating acicular crystals forming a spherical mat
Diffraction sample description: Powder
Measured chemistry: (Na_0.98_Ca_0.02_)_Σ=1_(Fe^3+^_8.77_Al_0.21_Fe^2+^_0.02_)_Σ=9_(P_1.00_O_4_)_6_(OH)_11_·3H_2_O; OH estimated by charge balance; H_2_O by difference
Cell parameters: a: 20.036(1) b: 5.1809(3) c: 14.0678(6) alpha: 90 beta: 106.959(6) gamma: 90 volume: 1396.8(1) crystal system: monoclinic
x	intensity
5	0
5.22	9.76454
5.44	36.1212
5.66	8.78275
5.88	32.6992
6.1	20.8271
6.32	38.2427
6.54	42.2187
6.76	22.9547
6.98	31.4164
7.2	13.8896
7.42	51.7159
7.64	21.7903
7.86	11.2059
8.08	39.495
8.3	49.033
8.52	6.9769
8.74	21.4119
8.96	25.4543
9.18	58.2849
9.4	17.5508
9.62	12.351
9.84	30.0291
10.06	24.2402
10.28	22.3267
10.5	14.446
10.72	26.1856
10.94	0.022903
11.16	5.76006
11.38	31.3639
11.6	9.99179
11.82	36.7239
12.04	0.127014
12.26	27.8009
12.48	23.4285
12.7	42.8729
12.92	15.6259
13.14	8.16812
13.36	32.906
13.58	10.3372
13.8	94.0554
14.02	22.0102
14.24	24.1266
14.46	8.83687
14.68	26.5182
14.9	1.43921
15.12	45.9923
15.34	25.5562
15.56	20.3645
15.78	10.1635
16	20.8606
16.22	7.20641
16.44	35.3102
16.66	29.2494
16.88	2.24805
17.1	22.3532
17.32	22.2361
17.54	30.4796
17.76	24.2076
17.98	23.8851
18.2	23.8688
18.42	39.0644
18.64	28.5691
18.86	5.16789
19.08	14.5499
19.3	23.4234
19.52	24.7439
19.74	16.8325
19.96	29.2657
20.18	16.215
20.4	15.3498
20.62	17.7188
20.84	34.8856
21.06	2.41835
21.28	15.6373
21.5	23.1729
21.72	46.1557
21.94	107.663
22.16	27.6165
22.38	19.5511
22.6	25.7569
22.82	13.4543
23.04	25.6136
23.26	49.8617
23.48	29.5906
23.7	24.9972
23.92	21.2343
24.14	49.7357
24.36	38.6888
24.58	25.1943
24.8	15.7048
25.02	8.68169
25.24	12.5311
25.46	2.25743
25.68	37.079
25.9	131.626
26.12	23.045
26.34	15.1598
26.56	3.08867
26.78	13.4876
27	37.4915
27.22	26.067
27.44	9.48199
27.66	57.8488
27.88	68.2983
28.1	35.247
28.32	20.7596
28.54	18.7967
28.76	75.9558
28.98	24.8268
29.2	19.9886
29.42	26.8418
29.64	18.9162
29.86	8.9231
30.08	45.2966
30.3	6.49127
30.52	3.4655
30.74	28.5373
30.96	34.9154
31.18	25.8371
31.4	33.902
31.62	40.2111
31.84	19.1512
32.06	13.9012
32.28	20.4842
32.5	7.91701
32.72	46.1238
32.94	32.5748
33.16	24.9091
33.38	14.4497
33.6	26.4051
33.82	32.1107
34.04	23.2103
34.26	21.696
34.48	14.6218
34.7	38.7191
34.92	14.2406
35.14	10.8219
35.36	43.8079
35.58	26.9284
35.8	22.8901
36.02	19.7295
36.24	18.1182
36.46	8.84492
36.68	24.5163
36.9	12.1769
37.12	4.98224
37.34	40.2235
37.56	47.939
37.78	27.8365
38	2.49582
38.22	13.2371
38.44	50.6568
38.66	5.81081
38.88	19.3153
39.1	19.194
39.32	19.6994
39.54	4.42944
39.76	34.1387
39.98	23.7868
40.2	25.6552
40.42	27.6569
40.64	46.6738
40.86	23.9581
41.08	18.0851
41.3	38.7956
41.52	18.4067
41.74	11.9114
41.96	14.3406
42.18	40.1399
42.4	42.9305
42.62	25.012
42.84	0.162506
43.06	26.2424
43.28	32.4302
43.5	8.61481
43.72	25.4857
43.94	33.4274
44.16	2.78529
44.38	18.5095
44.6	20.1029
44.82	7.05206
45.04	22.4586
45.26	0.084869
45.48	29.3144
45.7	18.2557
45.92	18.7496
46.14	33.6072
46.36	21.212
46.58	23.4192
46.8	21.2458
47.02	12.896
47.24	18.138
47.46	25.5738
47.68	34.6918
47.9	23.0476
48.12	32.0226
48.34	22.5131
48.56	28.4162
48.78	19.301
49	56.4289
49.22	20.1991
49.44	27.8115
49.66	32.4121
49.88	7.54585
50.1	25.1222
50.32	37.4778
50.54	1.60083
50.76	18.3367
50.98	25.7924
51.2	23.311
51.42	35.2865
51.64	43.1075
51.86	0.506119
52.08	32.3901
52.3	12.2222
52.52	25.3345
52.74	17.7627
52.96	25.881
53.18	37.0336
53.4	4.29433
53.62	22.6614
53.84	34.5129
54.06	33.3856
54.28	39.1864
54.5	27.4631
54.72	15.5408
54.94	26.6361
55.16	21.4103
55.38	52.8712
55.6	24.5589
55.82	32.3677
56.04	4.57375
56.26	20.7296
56.48	30.694
56.7	28.786
56.92	37.0696
57.14	15.0402
57.36	2.48329
57.58	40.4602
57.8	37.135
58.02	45.3898
58.24	41.6026
58.46	28.4163
58.68	20.9971
58.9	33.4864
59.12	2.60893
59.34	38.663
59.56	35.4872
59.78	40.5125
60	11.9862
60.22	24.8922
60.44	43.0942
60.66	19.7138
60.88	32.9169
61.1	18.5165
61.32	5.15927
61.54	19.6641
61.76	22.4798
61.98	37.3999
62.2	19.0913
62.42	23.8751
62.64	31.2544
62.86	2.32185
63.08	48.9522
63.3	23.4633
63.52	11.5465
63.74	3.07788
63.96	0.060776
64.18	0.992844
64.4	3.80675
64.62	25.8561
64.84	13.227
65.06	26.6989
65.28	21.8315
65.5	32.908
65.72	31.0856
65.94	12.5866
66.16	2.45839
66.38	25.1628
66.6	64.7223
66.82	53.7442
67.04	23.9007
67.26	41.729
67.48	38.4747
67.7	42.5293
67.92	2.76704
68.14	51.7451
68.36	4.2113
68.58	36.2031
68.8	38.5418
69.02	21.3096
69.24	16.9519
69.46	37.5233
69.68	15.5502
69.9	31.5132
70.12	22.4488
70.34	30.1114
70.56	29.4403
70.78	22.5003
71	39.8878
71.22	46.3663
71.44	56.1026
71.66	21.2203
71.88	26.8809
72.1	43.0596
72.32	32.8947
72.54	34.6603
72.76	1.09737
72.98	12.4203
73.2	13.9154
73.42	23.2936
73.64	23.1448
73.86	11.119
74.08	36.8306
74.3	33.0182
74.52	26.1598
74.74	13.2849
74.96	21.1989
75.18	2.48491
75.4	40.9973
75.62	45.1704
75.84	30.7301
76.06	15.0521
76.28	18.1626
76.5	15.6388
76.72	33.8175
76.94	18.3157
77.16	26.3015
77.38	33.6172
77.6	16.3051
77.82	45.7691
78.04	29.2266
78.26	30.8426
78.48	20.8953
78.7	26.8635
78.92	30.237
79.14	5.47726
79.36	4.0445
79.58	34.5145
79.8	33.1577
80.02	27.9416
80.24	42.7561
80.46	15.9267
80.68	14.6926
80.9	16.9005
81.12	30.0355
81.34	42.4924
81.56	26.7661
81.78	17.3027
82	4.54732
82.22	9.16235
82.44	17.7507
82.66	11.4539
82.88	5.86475
83.1	37.8817
83.32	31.6122
83.54	20.467
83.76	24.7524
83.98	8.78449
84.2	9.70947
84.42	32.8424
84.64	21.5662
84.86	19.5279
85.08	31.235
85.3	23.7279
85.52	33.882
85.74	38.4083
85.96	12.2912
86.18	10.309
86.4	18.0149
86.62	14.4384
86.84	33.7944
87.06	19.4004
87.28	20.8461
87.5	13.2644
87.72	0.692795
87.94	8.93909
88.16	34.9752
88.38	12.502
88.6	29.254
88.82	5.06284
89.04	34.3337
89.26	11.5589
89.48	11.9173
89.7	48.15
89.92	34.9021
