Measurement: Powder, Xray Data XY Processed
Mineral: Kimzeyite
Rruff sample: R060148
Ideal chemistry: Ca_3_Zr^4+^_2_(Al_2_Si)O_12_
Locality: Magnet Cove, Arkansas, USA
Source: University of Arizona Mineral Museum
Description: Black dodecahedra mixed with andradite and associated with quartz
Diffraction sample description: Powder, mixture of two garnets, refined andradite, a = 12.1073(8)
Measured chemistry: (Ca_2.97_Mg_0.03_)_Σ=3_(Zr_1.58_Ti_0.42_)_Σ=2_(Si_1.06_Fe^3+^_0.98_Al_0.96_)_Σ=3_O_12_
Cell parameters: a: 12.4680(9) b: 12.4680(9) c: 12.4680(9) alpha: 90 beta: 90 gamma: 90 volume: 1938.2(0) crystal system: cubic
x	intensity
5	0
5.22	0.773
5.44	8.593
5.66	6.746
5.88	0.898
6.1	14.49
6.32	10.385
6.54	7.144
6.76	10.122
6.98	6.681
7.2	11.424
7.42	14.151
7.64	8.719
7.86	9.081
8.08	24.862
8.3	7.753
8.52	2.056
8.74	0.828
8.96	4.436
9.18	18.243
9.4	6.635
9.62	16.477
9.84	6.795
10.06	2.973
10.28	10.419
10.5	0.669
10.72	4.823
10.94	6.007
11.16	1.814
11.38	5.728
11.6	11.369
11.82	15.975
12.04	13.947
12.26	6
12.48	3.009
12.7	5.53
12.92	10.967
13.14	13.128
13.36	5.096
13.58	5.154
13.8	8.219
14.02	15.838
14.24	9.602
14.46	3.614
14.68	23.948
14.9	5.556
15.12	2.691
15.34	10.766
15.56	0.749
15.78	7.099
16	9
16.22	3.11
16.44	1.998
16.66	21.064
16.88	3.093
17.1	10.624
17.32	8.766
17.54	6.492
17.76	7.007
17.98	7.824
18.2	15.497
18.42	9.263
18.64	7.402
18.86	17.406
19.08	8.346
19.3	10.268
19.52	2.115
19.74	0.894
19.96	3.889
20.18	51.356
20.4	6.536
20.62	6.915
20.84	32.811
21.06	0.424
21.28	13.817
21.5	5.678
21.72	3.743
21.94	15.668
22.16	0.564
22.38	2.687
22.6	14.257
22.82	9.203
23.04	1.745
23.26	6.835
23.48	1.851
23.7	1.512
23.92	11.849
24.14	7.756
24.36	5.839
24.58	3.885
24.8	8.741
25.02	6.002
25.24	1.639
25.46	8.668
25.68	13.778
25.9	3.86
26.12	0.891
26.34	8.652
26.56	15.276
26.78	7.477
27	8.738
27.22	14.65
27.44	1.717
27.66	8.548
27.88	12.306
28.1	4.94
28.32	3.605
28.54	8.315
28.76	27.435
28.98	17.837
29.2	3.331
29.42	23.303
29.64	97.414
29.86	10.378
30.08	14.432
30.3	4.958
30.52	10.302
30.74	10.232
30.96	16.091
31.18	12.519
31.4	5.342
31.62	5.709
31.84	17.467
32.06	12.774
32.28	15.406
32.5	1.353
32.72	8.733
32.94	8.458
33.16	143.893
33.38	9.007
33.6	6.62
33.82	13.206
34.04	11.395
34.26	0.585
34.48	11.843
34.7	16.394
34.92	19.303
35.14	7.381
35.36	43.173
35.58	10.722
35.8	9.7
36.02	9.221
36.24	10.465
36.46	60.918
36.68	10.953
36.9	16.783
37.12	0.686
37.34	9.867
37.56	24.324
37.78	5.585
38	21.969
38.22	14.185
38.44	8.714
38.66	16.004
38.88	0.756
39.1	1.234
39.32	9.356
39.54	12.29
39.76	7.082
39.98	12.825
40.2	7.851
40.42	2.684
40.64	3.446
40.86	27.386
41.08	13.646
41.3	10.623
41.52	7.607
41.74	16.955
41.96	4.94
42.18	7.328
42.4	11.415
42.62	16.406
42.84	1.409
43.06	6.624
43.28	5.342
43.5	15.365
43.72	12.34
43.94	11.352
44.16	4.967
44.38	12.627
44.6	10.271
44.82	20.191
45.04	6.049
45.26	0.108
45.48	8.715
45.7	11.733
45.92	12.723
46.14	28.704
46.36	28.27
46.58	17.213
46.8	17.494
47.02	3.46
47.24	8.511
47.46	16.42
47.68	25.155
47.9	1.102
48.12	15.716
48.34	4.487
48.56	2.944
48.78	20.497
49	4.727
49.22	4.733
49.44	6.015
49.66	8.468
49.88	12.56
50.1	0.152
50.32	10.937
50.54	8.072
50.76	11.039
50.98	14.836
51.2	6.46
51.42	8.136
51.64	4.23
51.86	3.924
52.08	2.635
52.3	16.45
52.52	11.821
52.74	0.936
52.96	21.477
53.18	2.072
53.4	7.736
53.62	8.609
53.84	6.294
54.06	5.129
54.28	5.878
54.5	3.802
54.72	16.799
54.94	16.077
55.16	22.257
55.38	9.282
55.6	3.303
55.82	5.363
56.04	3.485
56.26	15.48
56.48	0.894
56.7	25.303
56.92	59.101
57.14	54.999
57.36	15.668
57.58	5.823
57.8	5.613
58.02	12.804
58.24	20.017
58.46	5.1
58.68	11.509
58.9	9.535
59.12	14.721
59.34	17.322
59.56	7.296
59.78	13.362
60	2.9
60.22	15.781
60.44	6.651
60.66	12.974
60.88	10.984
61.1	13.033
61.32	17.703
61.54	14.231
61.76	4.347
61.98	14.378
62.2	10.239
62.42	11.321
62.64	1.635
62.86	3.792
63.08	10.858
63.3	8.98
63.52	5.211
63.74	0.732
63.96	17.918
64.18	20.016
64.4	6.78
64.62	5.009
64.84	20.873
65.06	5.815
65.28	7.788
65.5	11.374
65.72	15.165
65.94	8.042
66.16	11.554
66.38	6.434
66.6	11.118
66.82	8.81
67.04	15.718
67.26	14.176
67.48	0.349
67.7	18.304
67.92	15.858
68.14	5.313
68.36	1.906
68.58	8.893
68.8	3.842
69.02	6.829
69.24	15.144
69.46	17.573
69.68	9.412
69.9	10.681
70.12	5.1
70.34	2.282
70.56	10.403
70.78	4.445
71	1.817
71.22	13.693
71.44	21.917
71.66	15.5
71.88	7.084
72.1	5.251
72.32	9.447
72.54	13.128
72.76	10.335
72.98	17.208
73.2	14.235
73.42	1.016
73.64	8.102
73.86	13.81
74.08	4.815
74.3	12.687
74.52	8.347
74.74	5.609
74.96	3.988
75.18	0.519
75.4	12.17
75.62	12.961
75.84	11.094
76.06	20.359
76.28	15.539
76.5	4.161
76.72	15.059
76.94	8.526
77.16	9.143
77.38	9.004
77.6	2.598
77.82	15.311
78.04	13.899
78.26	16.972
78.48	14.993
78.7	15.048
78.92	8.853
79.14	23.666
79.36	7.886
79.58	4.1
79.8	0.113
80.02	7.58
80.24	10.415
80.46	20.478
80.68	4.239
80.9	4.084
81.12	11.367
81.34	1.218
81.56	18.034
81.78	28.763
82	6.688
82.22	11.628
82.44	22.197
82.66	1.274
82.88	8.936
83.1	10.999
83.32	2.092
83.54	18.373
83.76	24.321
83.98	16.506
84.2	11.437
84.42	12.307
84.64	17.002
84.86	19.706
85.08	13.37
85.3	26.08
85.52	14.766
85.74	12.117
85.96	5.012
86.18	19.337
86.4	13.345
86.62	11.294
86.84	19.67
87.06	8.919
87.28	7.953
87.5	8.11
87.72	4.378
87.94	2.346
88.16	12.989
88.38	26.362
88.6	8.298
88.82	11.777
89.04	31.857
89.26	17.758
89.48	3.996
89.7	15.266
89.92	10.916
