Measurement: Powder, Xray Data XY Processed
Mineral: Kirschsteinite
Rruff sample: R070266
Ideal chemistry: CaFe^2+^SiO_4_
Locality: Dolores mine, Pastrana, Mazarrón, Murcia, Spain
Source: Michael Scott
Description: Aggregate of vitreous brown rhombic prismatic crystals with conchoidal fracture
Diffraction sample description: Powder
Measured chemistry: (Ca_0.95_Mn_0.02_Mg_0.02_Na_0.01_)_Σ=1_(Fe^2+^_0.83_Mg_0.16_Fe^3+^_0.01_)_Σ=1_Si_1.00_O_4_; Fe^2+^ and Fe^3+^ by charge balance
Cell parameters: a: 4.8613(3) b: 11.0995(5) c: 6.3989(8) alpha: 90 beta: 90 gamma: 90 volume: 345.28(4) crystal system: orthorhombic
x	intensity
5	0
5.22	12.8255
5.44	22.6987
5.66	26.3779
5.88	22.0062
6.1	12.9041
6.32	9.44814
6.54	30.2508
6.76	18.9254
6.98	21.5047
7.2	18.8994
7.42	25.5911
7.64	29.7301
7.86	7.96461
8.08	7.36887
8.3	2.77616
8.52	9.85494
8.74	30.6882
8.96	8.1685
9.18	10.2582
9.4	24.9812
9.62	23.4476
9.84	22.2972
10.06	22.3458
10.28	3.50419
10.5	25.4915
10.72	8.16648
10.94	12.9646
11.16	18.1352
11.38	16.2776
11.6	2.371
11.82	17.0707
12.04	2.81713
12.26	30.5893
12.48	13.5305
12.7	20.2025
12.92	3.17072
13.14	14.1673
13.36	13.2878
13.58	14.9136
13.8	12.6563
14.02	37.2177
14.24	27.6072
14.46	1.83587
14.68	1.36037
14.9	13.7305
15.12	15.392
15.34	19.5896
15.56	12.1064
15.78	1.08581
16	127.185
16.22	35.712
16.44	32.401
16.66	29.6727
16.88	0.799538
17.1	33.9759
17.32	14.2982
17.54	6.37957
17.76	20.4708
17.98	41.0268
18.2	18.3977
18.42	30.8752
18.64	18.4143
18.86	25.2677
19.08	4.66545
19.3	17.4434
19.52	13.2262
19.74	11.5805
19.96	49.6266
20.18	27.9383
20.4	24.8791
20.62	5.64043
20.84	8.90803
21.06	27.4113
21.28	32.9413
21.5	6.34269
21.72	8.27341
21.94	16.9621
22.16	19.2567
22.38	12.8534
22.6	14.4989
22.82	11.2622
23.04	16.8486
23.26	22.6548
23.48	12.3941
23.7	3.84352
23.92	13.2348
24.14	7.79923
24.36	130.904
24.58	11.4044
24.8	19.6979
25.02	9.03974
25.24	2.82689
25.46	1.62409
25.68	1.95505
25.9	19.8695
26.12	14.4202
26.34	27.4975
26.56	22.6913
26.78	29.3956
27	24.2113
27.22	8.73952
27.44	23.2073
27.66	15.584
27.88	24.8708
28.1	55.1807
28.32	22.6247
28.54	20.0368
28.76	28.2941
28.98	5.10384
29.2	9.2673
29.42	8.75504
29.64	22.7046
29.86	7.21728
30.08	3.24133
30.3	60.8554
30.52	46.8637
30.74	39.7968
30.96	32.977
31.18	24.2908
31.4	16.5584
31.62	39.162
31.84	21.7364
32.06	20.7168
32.28	84.5938
32.5	24.2794
32.72	8.0768
32.94	28.0825
33.16	22.5587
33.38	29.145
33.6	93.1401
33.82	22.6163
34.04	11.6577
34.26	17.5877
34.48	168.468
34.7	17.6466
34.92	12.3425
35.14	8.99969
35.36	31.8497
35.58	22.9195
35.8	31.2262
36.02	6.33719
36.24	19.9195
36.46	31.0127
36.68	24.7326
36.9	33.4231
37.12	21.7214
37.34	70.2207
37.56	16.2665
37.78	17.0732
38	35.129
38.22	7.53499
38.44	15.3089
38.66	18.8522
38.88	17.6822
39.1	43.17
39.32	17.2675
39.54	15.4957
39.76	21.3501
39.98	17.3465
40.2	30.9102
40.42	21.9446
40.64	6.14224
40.86	20.5009
41.08	10.7104
41.3	5.42481
41.52	12.3459
41.74	21.6477
41.96	9.14672
42.18	14.9391
42.4	17.8262
42.62	9.36166
42.84	8.49131
43.06	16.998
43.28	17.302
43.5	7.86058
43.72	4.30377
43.94	18.221
44.16	12.086
44.38	18.0023
44.6	35.3872
44.82	17.8879
45.04	44.9464
45.26	17.9885
45.48	13.6403
45.7	30.0888
45.92	22.0134
46.14	14.6547
46.36	18.4645
46.58	9.91847
46.8	14.318
47.02	12.4854
47.24	15.3196
47.46	20.0458
47.68	10.828
47.9	13.995
48.12	15.8534
48.34	25.4968
48.56	21.289
48.78	13.6951
49	14.3021
49.22	23.0607
49.44	35.8914
49.66	13.1127
49.88	208.973
50.1	37.8135
50.32	18.4621
50.54	11.1215
50.76	6.37954
50.98	19.1762
51.2	27.2938
51.42	18.1208
51.64	32.844
51.86	23.5654
52.08	26.0944
52.3	1.33897
52.52	1.70842
52.74	13.2636
52.96	1.85616
53.18	20.8877
53.4	5.54058
53.62	42.922
53.84	45.4787
54.06	35.6605
54.28	22.2824
54.5	3.0467
54.72	36.9876
54.94	11.978
55.16	0.081261
55.38	28.6077
55.6	14.7142
55.82	35.2621
56.04	4.60688
56.26	7.34599
56.48	25.4722
56.7	10.3265
56.92	13.0359
57.14	28.6091
57.36	40.6713
57.58	45.9476
57.8	19.9328
58.02	23.7885
58.24	16.666
58.46	10.9555
58.68	17.3812
58.9	7.19736
59.12	20.9087
59.34	6.9965
59.56	38.4034
59.78	0.397728
60	19.4794
60.22	15.29
60.44	22.5535
60.66	3.48459
60.88	21.8441
61.1	3.08783
61.32	22.8615
61.54	32.329
61.76	28.7204
61.98	18.1612
62.2	14.6031
62.42	19.8111
62.64	33.8943
62.86	3.2828
63.08	40.8072
63.3	15.0888
63.52	4.70786
63.74	1.82096
63.96	8.7989
64.18	31.0919
64.4	1.34905
64.62	4.92548
64.84	41.8653
65.06	13.6542
65.28	33.6126
65.5	15.6064
65.72	14.2609
65.94	27.9453
66.16	13.2621
66.38	22.2287
66.6	58.4142
66.82	35.2641
67.04	20.4725
67.26	9.64439
67.48	4.42828
67.7	16.6828
67.92	11.9353
68.14	6.9584
68.36	18.3558
68.58	23.6238
68.8	29.7346
69.02	20.9733
69.24	26.6476
69.46	35.4706
69.68	22.2872
69.9	35.7703
70.12	23.0713
70.34	37.9465
70.56	16.9089
70.78	33.0676
71	34.7588
71.22	16.7845
71.44	4.19785
71.66	18.3065
71.88	25.3626
72.1	27.6083
72.32	19.1725
72.54	14.0306
72.76	26.4614
72.98	33.0314
73.2	15.2306
73.42	1.48354
73.64	37.274
73.86	36.4329
74.08	10.5411
74.3	21.5007
74.52	4.31151
74.74	2.18565
74.96	33.031
75.18	12.7468
75.4	3.2674
75.62	0.746941
75.84	10.8315
76.06	14.246
76.28	19.8356
76.5	27.638
76.72	32.2153
76.94	27.6316
77.16	11.7596
77.38	24.1178
77.6	2.81734
77.82	9.20892
78.04	3.39919
78.26	7.68316
78.48	6.31644
78.7	18.6102
78.92	1.12058
79.14	27.7612
79.36	56.9305
79.58	29.3446
79.8	33.6965
80.02	40.5543
80.24	33.513
80.46	13.2972
80.68	12.3631
80.9	21.391
81.12	36.1373
81.34	4.71422
81.56	6.19897
81.78	10.801
82	25.6881
82.22	9.60792
82.44	8.7552
82.66	16.1499
82.88	24.8372
83.1	30.6644
83.32	2.84539
83.54	50.2293
83.76	31.6937
83.98	12.9821
84.2	11.0786
84.42	15.6476
84.64	26.5539
84.86	23.3699
85.08	11.8144
85.3	29.3326
85.52	11.1485
85.74	30.1057
85.96	11.4671
86.18	9.3103
86.4	3.83536
86.62	26.5927
86.84	24.0688
87.06	28.3853
87.28	24.4987
87.5	21.8491
87.72	25.6383
87.94	19.4889
88.16	10.6
88.38	9.70698
88.6	16.7463
88.82	17.022
89.04	33.0132
89.26	20.3969
89.48	23.9727
89.7	21.4942
89.92	13.0535
