Measurement: Powder, Xray Data XY Processed
Mineral: Klebelsbergite
Rruff sample: R060157
Ideal chemistry: Sb^3+^_4_O_4_(S^6+^O_4_)(OH)_2_
Locality: Pereta mine, near Grosseto, Tuscany, Italy
Source: Marcus Origlieri
Description: Yellow-orange tufted aggregates of bladed crystals on stibnite
Diffraction sample description: Single crystal, powder profile is calculated
Cell parameters: a: 5.7600(8) b: 11.250(2) c: 14.850(3) alpha: 90 beta: 90 gamma: 90 volume: 962.3(2) crystal system: orthorhombic
x	intensity
5	0
5.22	0
5.44	0
5.66	0
5.88	0
6.1	0
6.32	0
6.54	0
6.76	0
6.98	0
7.2	0
7.42	0
7.64	0
7.86	0.163
8.08	0
8.3	0
8.52	0
8.74	0
8.96	0
9.18	0
9.4	0
9.62	0
9.84	0
10.06	0
10.28	0
10.5	0
10.72	0
10.94	0
11.16	0
11.38	0
11.6	0
11.82	0.721
12.04	0
12.26	0
12.48	0
12.7	0
12.92	0
13.14	0
13.36	0
13.58	0
13.8	0
14.02	0
14.24	62.494
14.46	0
14.68	0
14.9	0
15.12	0
15.34	0
15.56	0
15.78	0.055
16	0
16.22	0
16.44	0
16.66	0
16.88	0
17.1	0
17.32	7.635
17.54	0
17.76	0
17.98	0
18.2	0.63
18.42	0.002
18.64	0
18.86	0
19.08	0
19.3	0
19.52	0
19.74	1.051
19.96	0
20.18	0
20.4	0
20.62	0
20.84	0
21.06	5.029
21.28	0
21.5	0
21.72	0
21.94	0
22.16	0.001
22.38	0
22.6	0
22.82	24.153
23.04	0
23.26	0
23.48	0
23.7	0.006
23.92	4.175
24.14	0
24.36	0
24.58	0
24.8	0
25.02	2.098
25.24	13.506
25.46	0
25.68	0
25.9	0
26.12	0
26.34	0
26.56	0.116
26.78	0
27	0
27.22	0
27.44	0
27.66	0
27.88	0
28.1	0
28.32	21.557
28.54	71.9
28.76	5.51
28.98	13.49
29.2	0
29.42	0
29.64	0.766
29.86	0
30.08	0
30.3	0
30.52	0
30.74	0.387
30.96	1.263
31.18	0.002
31.4	0
31.62	7.987
31.84	2.073
32.06	0.243
32.28	0
32.5	0.003
32.72	10.268
32.94	0
33.16	0
33.38	5.299
33.6	0.007
33.82	0.173
34.04	2.22
34.26	0.838
34.48	0
34.7	0.004
34.92	0.403
35.14	0
35.36	0.011
35.58	0.454
35.8	0
36.02	3.911
36.24	4.925
36.46	0
36.68	0
36.9	18.56
37.12	0.708
37.34	0.374
37.56	3.868
37.78	0
38	0
38.22	0
38.44	0
38.66	0
38.88	0
39.1	0
39.32	0.001
39.54	3.926
39.76	0.131
39.98	0.312
40.2	1.763
40.42	1.166
40.64	0
40.86	0
41.08	0
41.3	0.678
41.52	0
41.74	1.296
41.96	0.669
42.18	0
42.4	0
42.62	0
42.84	0.298
43.06	0.011
43.28	3.043
43.5	1.815
43.72	0.543
43.94	0
44.16	0
44.38	0.248
44.6	0.214
44.82	0.256
45.04	1.581
45.26	0.01
45.48	1.81
45.7	0
45.92	0
46.14	3.711
46.36	0.216
46.58	5.733
46.8	3.395
47.02	1.662
47.24	2.391
47.46	0
47.68	0
47.9	0.131
48.12	0.952
48.34	6.571
48.56	0.605
48.78	0.458
49	5.046
49.22	0.284
49.44	0
49.66	0.376
49.88	0.312
50.1	2.051
50.32	0.345
50.54	4.512
50.76	0.006
50.98	0
51.2	0.125
51.42	0.912
51.64	3.617
51.86	3.308
52.08	0.018
52.3	0.153
52.52	0
52.74	0.055
52.96	0.138
53.18	0.005
53.4	0.427
53.62	1.474
53.84	0.652
54.06	0.694
54.28	1.472
54.5	1.847
54.72	2.449
54.94	1.624
55.16	0.546
55.38	0
55.6	0
55.82	0
56.04	0.119
56.26	2.078
56.48	1.393
56.7	0.038
56.92	0.132
57.14	0.36
57.36	0.061
57.58	0.963
57.8	0.656
58.02	0.021
58.24	0.006
58.46	0.076
58.68	0.187
58.9	0.999
59.12	2.19
59.34	0.211
59.56	1.57
59.78	0.164
60	0.597
60.22	0.225
60.44	6.554
60.66	1.861
60.88	0.09
61.1	0.056
61.32	0.251
61.54	1.903
61.76	0.555
61.98	0.476
62.2	0.003
62.42	0.015
62.64	0.122
62.86	0.534
63.08	0.783
63.3	0.297
63.52	1.604
63.74	0.838
63.96	0.037
64.18	0.869
64.4	0.358
64.62	0.157
64.84	0.174
65.06	0.632
65.28	0.113
65.5	2.725
65.72	2.188
65.94	1.498
66.16	0.802
66.38	0.247
66.6	0.61
66.82	0.886
67.04	0.202
67.26	0.697
67.48	0.134
67.7	1.431
67.92	0.811
68.14	0.355
68.36	0.142
68.58	1.809
68.8	2.865
69.02	1.193
69.24	0.002
69.46	0.135
69.68	0.075
69.9	0.738
70.12	1.182
70.34	0.971
70.56	0.437
70.78	0.291
71	0.149
71.22	1.097
71.44	0.712
71.66	1.024
71.88	0.611
72.1	0.047
72.32	0.022
72.54	0.005
72.76	0.841
72.98	0.351
73.2	0.002
73.42	0.44
73.64	0.542
73.86	0.289
74.08	0.057
74.3	0.011
74.52	0.224
74.74	0.125
74.96	0.71
75.18	0.391
75.4	0.208
75.62	0.097
75.84	0.405
76.06	0.199
76.28	0.339
76.5	1.207
76.72	1.25
76.94	0.397
77.16	0.232
77.38	0.098
77.6	0.037
77.82	0.544
78.04	0.594
78.26	0.401
78.48	1.002
78.7	0.538
78.92	0.077
79.14	0.123
79.36	0.203
79.58	0.049
79.8	0.049
80.02	0.782
80.24	0.435
80.46	0.128
80.68	0.153
80.9	0.164
81.12	0.039
81.34	0.025
81.56	0.067
81.78	0.013
82	0.018
82.22	0.064
82.44	0.035
82.66	0.293
82.88	0.256
83.1	0.017
83.32	0.003
83.54	0
83.76	0.824
83.98	1.362
84.2	0.366
84.42	0.125
84.64	0.606
84.86	0.103
85.08	0.483
85.3	0.737
85.52	0.599
85.74	0.677
85.96	0.259
86.18	0.313
86.4	0.185
86.62	0.481
86.84	0.43
87.06	0.234
87.28	0.074
87.5	0.361
87.72	0.329
87.94	0
88.16	0.522
88.38	0.738
88.6	0.493
88.82	0.395
89.04	0.257
89.26	0.603
89.48	0.18
89.7	0.031
89.92	0.486
