Measurement: Powder, Xray Data XY Processed
Mineral: Kornerupine
Rruff sample: R050214
Ideal chemistry: (Mg,Fe^2+^,Al,[box])_10_(Si,Al,B)_5_O_21_(OH,F)_2_
Locality: Sri Lanka
Source: Jibamitra Ganguly
Description: Water-worn single crystal fragment
Diffraction sample description: Powder
Measured chemistry: (Mg_3.63_[box]_0.21_Fe^2+^_0.14_Na_0.02_)_4_Al_6.00_(Si_2.44_Al_1.97_B_0.59_)_5_O_21_(OH) ;   B and Li not measured; B estimated by charge balance
Cell parameters: a: 16.0051(6) b: 13.7140(4) c: 6.7090(2) alpha: 90. beta: 90. gamma: 90. volume: 1472.59(6) crystal system: orthorhombic
x	intensity
5	0
5.22	2.31323
5.44	10.2092
5.66	11.2099
5.88	16.5328
6.1	7.70504
6.32	0.546457
6.54	14.9162
6.76	20.3587
6.98	5.78708
7.2	3.99765
7.42	5.18071
7.64	7.17007
7.86	11.823
8.08	9.65122
8.3	25.7481
8.52	329.619
8.74	4.76701
8.96	14.2079
9.18	4.41256
9.4	0.291206
9.62	17.0617
9.84	9.55822
10.06	0.054855
10.28	9.09639
10.5	3.61371
10.72	11.4234
10.94	13.8965
11.16	9.10072
11.38	7.24752
11.6	11.1509
11.82	3.49514
12.04	1.98397
12.26	7.21097
12.48	13.2521
12.7	19.0695
12.92	290.065
13.14	6.09934
13.36	5.9426
13.58	11.2931
13.8	5.31318
14.02	1.7504
14.24	7.00515
14.46	10.2651
14.68	10.109
14.9	8.16849
15.12	4.37806
15.34	11.2851
15.56	10.3981
15.78	0.661056
16	8.28219
16.22	13.3199
16.44	3.75967
16.66	11.8551
16.88	3.09819
17.1	17.353
17.32	2.40533
17.54	6.49464
17.76	5.80162
17.98	7.90354
18.2	3.14444
18.42	21.5196
18.64	7.35624
18.86	0.958604
19.08	10.9565
19.3	9.659
19.52	8.47536
19.74	10.6627
19.96	25.4652
20.18	12.3407
20.4	13.1119
20.62	1.45295
20.84	5.22534
21.06	8.02791
21.28	5.03023
21.5	11.0427
21.72	6.58619
21.94	0.661086
22.16	14.7027
22.38	16.9216
22.6	1.21287
22.82	8.98774
23.04	13.1882
23.26	3.3318
23.48	4.5333
23.7	7.91639
23.92	7.70965
24.14	5.55682
24.36	10.1122
24.58	6.49653
24.8	4.71285
25.02	4.50158
25.24	3.97946
25.46	2.88265
25.68	23.1425
25.9	33.2513
26.12	29.0102
26.34	16.9317
26.56	208.712
26.78	25.7478
27	81.4813
27.22	18.6707
27.44	7.15246
27.66	2.28204
27.88	1.6376
28.1	9.47111
28.32	24.5094
28.54	10.5075
28.76	7.96003
28.98	18.5552
29.2	19.7211
29.42	10.2804
29.64	631.595
29.86	25.8116
30.08	11.7934
30.3	7.69763
30.52	7.24141
30.74	9.87362
30.96	1.02384
31.18	0.540666
31.4	2.023
31.62	28.8236
31.84	16.9866
32.06	19.7992
32.28	44.4508
32.5	7.73127
32.72	5.88657
32.94	7.30979
33.16	66.4641
33.38	1.48985
33.6	26.121
33.82	5.70816
34.04	27.9302
34.26	337.81
34.48	45.8522
34.7	5.72522
34.92	10.4873
35.14	11.8271
35.36	5.86708
35.58	20.0331
35.8	18.5769
36.02	3.62617
36.24	7.06407
36.46	2.44533
36.68	3.12292
36.9	11.3129
37.12	0.248297
37.34	9.59788
37.56	30.7806
37.78	8.66576
38	2.14833
38.22	0.245647
38.44	14.2098
38.66	15.9221
38.88	3.20406
39.1	12.3248
39.32	22.4223
39.54	20.3479
39.76	5.25386
39.98	6.84743
40.2	3.33352
40.42	2.6303
40.64	3.55347
40.86	3.76795
41.08	4.0575
41.3	19.9476
41.52	14.2242
41.74	10.5016
41.96	4.72886
42.18	1.50083
42.4	0.574039
42.62	51.3076
42.84	19.462
43.06	184.083
43.28	18.4542
43.5	81.0153
43.72	17.6901
43.94	28.4071
44.16	10.9889
44.38	16.5923
44.6	9.29052
44.82	3.96336
45.04	12.8709
45.26	2.29168
45.48	29.8719
45.7	30.1891
45.92	16.561
46.14	4.33162
46.36	4.40327
46.58	11.3248
46.8	7.4895
47.02	5.45853
47.24	8.28143
47.46	8.10326
47.68	5.17035
47.9	6.55707
48.12	6.76674
48.34	19.6693
48.56	33.9627
48.78	13.8636
49	4.18707
49.22	5.56467
49.44	1.21392
49.66	8.4356
49.88	3.78873
50.1	6.31747
50.32	14.8346
50.54	11.6897
50.76	8.45763
50.98	3.11336
51.2	12.9511
51.42	7.89451
51.64	100.714
51.86	29.6069
52.08	16.4123
52.3	6.73409
52.52	0.174135
52.74	8.27989
52.96	3.3175
53.18	14.4112
53.4	30.7323
53.62	22.0925
53.84	12.2997
54.06	10.5483
54.28	8.57541
54.5	7.46654
54.72	237.635
54.94	32.2532
55.16	0.588423
55.38	18.8157
55.6	13.3923
55.82	8.33951
56.04	1.26329
56.26	4.05835
56.48	10.6948
56.7	4.15235
56.92	0.363637
57.14	12.3402
57.36	5.32629
57.58	41.9263
57.8	6.31625
58.02	11.0776
58.24	8.01107
58.46	3.5076
58.68	0.385058
58.9	3.34177
59.12	5.35234
59.34	5.4472
59.56	6.25003
59.78	16.1739
60	94.5684
60.22	21.5659
60.44	4.31703
60.66	7.09239
60.88	10.1236
61.1	4.83326
61.32	7.48655
61.54	16.1623
61.76	4.56633
61.98	88.522
62.2	117.454
62.42	25.2217
62.64	17.4661
62.86	5.69799
63.08	5.91509
63.3	9.19573
63.52	7.46745
63.74	3.93099
63.96	12.7589
64.18	10.0912
64.4	17.0854
64.62	1.75449
64.84	9.72578
65.06	7.49556
65.28	13.5321
65.5	6.57775
65.72	7.14453
65.94	5.27207
66.16	38.8833
66.38	11.4417
66.6	11.2433
66.82	10.2279
67.04	12.123
67.26	0.981534
67.48	1.77315
67.7	3.64595
67.92	16.2872
68.14	22.7888
68.36	36.6821
68.58	13.9714
68.8	11.9795
69.02	5.99857
69.24	5.98775
69.46	22.3337
69.68	10.3906
69.9	5.47209
70.12	19.7012
70.34	5.3167
70.56	12.2075
70.78	20.2904
71	14.3883
71.22	8.437
71.44	3.57248
71.66	9.84727
71.88	15.23
72.1	7.46446
72.32	21.896
72.54	4.08962
72.76	6.73338
72.98	1.78835
73.2	13.7903
73.42	0.119951
73.64	4.83361
73.86	9.77514
74.08	0.626847
74.3	15.1115
74.52	9.55159
74.74	65.5592
74.96	58.4104
75.18	0.416914
75.4	5.81328
75.62	11.3638
75.84	6.79715
76.06	5.21441
76.28	13.6588
76.5	5.93314
76.72	7.28407
76.94	6.69522
77.16	3.65275
77.38	4.61995
77.6	4.55657
77.82	0.450378
78.04	7.09722
78.26	4.77017
78.48	8.71371
78.7	10.7879
78.92	13.7234
79.14	5.64828
79.36	6.05808
79.58	7.42836
79.8	0.507468
80.02	10.5716
80.24	1.34495
80.46	2.63905
80.68	3.73342
80.9	5.47778
81.12	9.68627
81.34	4.70795
81.56	15.5894
81.78	7.19643
82	1.00237
82.22	1.3174
82.44	16.3769
82.66	4.49731
82.88	6.04056
83.1	12.2328
83.32	13.3764
83.54	17.2623
83.76	10.6611
83.98	1.87444
84.2	0.832486
84.42	7.98385
84.64	18.8645
84.86	8.98954
85.08	4.06883
85.3	3.92738
85.52	3.88103
85.74	5.92546
85.96	9.99963
86.18	7.51249
86.4	5.94636
86.62	1.53337
86.84	7.38435
87.06	11.1752
87.28	3.98241
87.5	2.87843
87.72	0.67297
87.94	5.75686
88.16	3.79072
88.38	6.82476
88.6	15.1369
88.82	1.21496
89.04	10.1097
89.26	14.8908
89.48	13.7708
89.7	6.53493
89.92	4.80171
