Measurement: Powder, Xray Data XY Processed
Mineral: Kovdorskite
Rruff sample: R050505
Ideal chemistry: Mg_2_PO_4_(OH)3H_2_O
Locality: Kovdor Massif, Kola Peninsula, Russia
Source: Bob Downs
Description: Colorless prismatic crystals, slightly pink in color when viewed in bulk. This sample was used in the structural study by Morrison et al (2012)
Diffraction sample description: Powder
Measured chemistry: Mg_2.00_P_1.00_O_4_(OH)Â·2.67H_2_O ; trace amounts of Mn; H_2_O estimated by difference
Cell parameters: a: 10.3189(5) b: 12.9374(4) c: 4.7294(2) alpha: 90. beta: 101.199(4) gamma: 90. volume: 619.35(3) crystal system: monoclinic
x	intensity
5	0
5.22	6.572
5.44	13.275
5.66	0.953
5.88	7.87
6.1	11.237
6.32	15.615
6.54	9.83
6.76	5.064
6.98	10.973
7.2	6.622
7.42	12.319
7.64	8.208
7.86	7.005
8.08	10.019
8.3	0.133
8.52	12.728
8.74	2.711
8.96	13.422
9.18	9.194
9.4	5.5
9.62	1.776
9.84	8.051
10.06	17.122
10.28	3.042
10.5	1.952
10.72	6.137
10.94	23.188
11.16	865.323
11.38	13.256
11.6	10.561
11.82	2.296
12.04	9.072
12.26	3.491
12.48	1.814
12.7	1.824
12.92	10.708
13.14	13.225
13.36	12.607
13.58	5.761
13.8	81.182
14.02	12.134
14.24	2.344
14.46	8.526
14.68	0.398
14.9	12.594
15.12	8.513
15.34	0.231
15.56	3.924
15.78	0.304
16	2.524
16.22	55.358
16.44	21.256
16.66	1.944
16.88	4.215
17.1	8.618
17.32	5.793
17.54	81.076
17.76	7.209
17.98	2.572
18.2	10.489
18.42	3.376
18.64	2.359
18.86	20.659
19.08	4.587
19.3	7.866
19.52	12.487
19.74	2.323
19.96	0.843
20.18	3.153
20.4	69.953
20.62	86.338
20.84	5.909
21.06	6.99
21.28	5.029
21.5	1.213
21.72	5.376
21.94	2.606
22.16	3.078
22.38	33.233
22.6	83.145
22.82	3.057
23.04	4.751
23.26	2.291
23.48	11.951
23.7	75.97
23.92	42.947
24.14	4.509
24.36	31.478
24.58	18.01
24.8	3.024
25.02	6.202
25.24	2.351
25.46	12.024
25.68	5.85
25.9	0.693
26.12	0.276
26.34	8.81
26.56	53.912
26.78	7.084
27	0.811
27.22	113.34
27.44	22.797
27.66	16.067
27.88	4.172
28.1	2.157
28.32	88.03
28.54	1.015
28.76	2.932
28.98	11.307
29.2	6.476
29.42	8.272
29.64	78.169
29.86	18.406
30.08	4.586
30.3	2.452
30.52	7.097
30.74	23.866
30.96	3.711
31.18	0.324
31.4	9.771
31.62	20.815
31.84	99.729
32.06	10.846
32.28	10.714
32.5	0.273
32.72	137.818
32.94	11.058
33.16	9.72
33.38	10.108
33.6	3.309
33.82	136.537
34.04	17.092
34.26	8.442
34.48	0.356
34.7	8.068
34.92	5.995
35.14	0.063
35.36	12.785
35.58	48.221
35.8	15.071
36.02	7.61
36.24	14.211
36.46	74.788
36.68	13.863
36.9	7.064
37.12	5.514
37.34	6.835
37.56	11.157
37.78	66.719
38	6.593
38.22	12.601
38.44	9.253
38.66	8.32
38.88	3.201
39.1	1.003
39.32	7.637
39.54	14.052
39.76	31.838
39.98	55.839
40.2	87.41
40.42	18.565
40.64	10.245
40.86	1.176
41.08	8.174
41.3	4.171
41.52	9.528
41.74	43.697
41.96	23.168
42.18	19.826
42.4	4.662
42.62	1.835
42.84	10.086
43.06	5.44
43.28	0.9
43.5	3.128
43.72	5.521
43.94	11.085
44.16	2.209
44.38	3.916
44.6	0.369
44.82	1.685
45.04	10.592
45.26	19.417
45.48	8.225
45.7	13.887
45.92	1.026
46.14	3.191
46.36	6.47
46.58	10.33
46.8	12.453
47.02	9.414
47.24	1.871
47.46	6.907
47.68	11.012
47.9	9.062
48.12	10.571
48.34	119.797
48.56	21.534
48.78	0.63
49	12.817
49.22	2.988
49.44	6.152
49.66	0.723
49.88	20.463
50.1	8.898
50.32	5.081
50.54	2.086
50.76	10.983
50.98	10.461
51.2	4.813
51.42	0.875
51.64	3.736
51.86	5.809
52.08	4.889
52.3	11.849
52.52	32.4
52.74	21.738
52.96	6.778
53.18	5.553
53.4	19.009
53.62	9.789
53.84	1.912
54.06	0.044
54.28	8.948
54.5	32.348
54.72	7.844
54.94	1.393
55.16	5.124
55.38	8.907
55.6	1.881
55.82	4.761
56.04	6.54
56.26	11.656
56.48	18.008
56.7	15.906
56.92	27.256
57.14	1.647
57.36	8.577
57.58	3.558
57.8	12.557
58.02	22.578
58.24	14.699
58.46	18.914
58.68	7.788
58.9	27.684
59.12	23.086
59.34	4.361
59.56	2.905
59.78	3.105
60	0.545
60.22	3.405
60.44	1.265
60.66	0.914
60.88	6.781
61.1	6.555
61.32	6.917
61.54	3.376
61.76	20.506
61.98	14.926
62.2	14.542
62.42	15.064
62.64	10.121
62.86	0.557
63.08	5.512
63.3	5.405
63.52	11.399
63.74	6.489
63.96	4.629
64.18	14.294
64.4	11.36
64.62	10.739
64.84	20.975
65.06	2.227
65.28	4.574
65.5	5.886
65.72	1.843
65.94	13.988
66.16	7.935
66.38	12.178
66.6	5.283
66.82	12.379
67.04	1.805
67.26	1.13
67.48	0.493
67.7	1.222
67.92	5.911
68.14	9.654
68.36	10.24
68.58	11.578
68.8	6.752
69.02	3.07
69.24	6.324
69.46	1.53
69.68	3.662
69.9	2.86
70.12	6.306
70.34	3.639
70.56	5.857
70.78	12.778
71	3.97
71.22	9.966
71.44	2.96
71.66	1.058
71.88	2.157
72.1	8.294
72.32	13.427
72.54	10.572
72.76	6.957
72.98	8.072
73.2	7.77
73.42	11.569
73.64	9.633
73.86	2.251
74.08	6.585
74.3	0.672
74.52	10.457
74.74	1.255
74.96	11.073
75.18	2.519
75.4	4.215
75.62	6.379
75.84	3.499
76.06	3.545
76.28	9.465
76.5	2.407
76.72	4.269
76.94	2.619
77.16	0.864
77.38	1.861
77.6	5.21
77.82	6.369
78.04	6.518
78.26	2.399
78.48	7.455
78.7	2.955
78.92	1.075
79.14	8.169
79.36	6.207
79.58	1.148
79.8	5.268
80.02	7.376
80.24	2.382
80.46	5.29
80.68	6.183
80.9	3.001
81.12	1.581
81.34	4.262
81.56	2.118
81.78	9.04
82	8.98
82.22	6.909
82.44	14.716
82.66	2.778
82.88	6.014
83.1	3.123
83.32	5.421
83.54	7.057
83.76	3.181
83.98	7.293
84.2	8.268
84.42	1.153
84.64	15.197
84.86	10.108
85.08	8.174
85.3	11.127
85.52	12.897
85.74	2.021
85.96	4.494
86.18	7.612
86.4	8.796
86.62	0.851
86.84	6.938
87.06	6.966
87.28	7.006
87.5	0.782
87.72	4.346
87.94	5.654
88.16	4.66
88.38	11.814
88.6	0.196
88.82	6.673
89.04	3.796
89.26	3.714
89.48	10.56
89.7	9.075
89.92	1.371
