Measurement: Powder, Xray Data XY Processed
Mineral: Kovdorskite
Rruff sample: R060579
Ideal chemistry: Mg_2_PO_4_(OH)3H_2_O
Locality: Kovdor Massif, Kola Peninsula, Murmanskaja Oblast', Northern Region, Russia
Source: Michael Scott
Description: Pale blue prismatic crystals
Diffraction sample description: Powder
Measured chemistry: (Mg_1.98_Fe_0.02_)_Σ=2_P_1.00_O_4_(OH)·3H_2_O; H_2_O by difference; (OH) by charge balance
Cell parameters: a: 10.3210(5) b: 12.9397(6) c: 4.7320(2) alpha: 90. beta: 101.206(4) gamma: 90. volume: 619.91(3) crystal system: monoclinic
x	intensity
5	0
5.22	12.0582
5.44	3.4479
5.66	14.9852
5.88	7.98699
6.1	10.0432
6.32	4.38703
6.54	14.8636
6.76	11.9685
6.98	5.50644
7.2	7.48846
7.42	9.1254
7.64	10.7091
7.86	3.70117
8.08	2.25497
8.3	1.78712
8.52	14.5761
8.74	11.1527
8.96	3.98045
9.18	2.25532
9.4	5.53188
9.62	9.22525
9.84	9.18772
10.06	7.14082
10.28	5.70917
10.5	9.81053
10.72	6.81887
10.94	26.9501
11.16	952.229
11.38	26.3588
11.6	2.564
11.82	13.5832
12.04	2.03833
12.26	7.18138
12.48	5.37361
12.7	2.50544
12.92	3.57312
13.14	6.97344
13.36	10.6412
13.58	14.5053
13.8	99.6635
14.02	4.83379
14.24	1.82573
14.46	6.2246
14.68	3.26593
14.9	0.570397
15.12	5.49139
15.34	6.51515
15.56	1.31353
15.78	5.27351
16	11.3133
16.22	49.2249
16.44	27.9696
16.66	5.61022
16.88	1.76626
17.1	7.99481
17.32	7.97131
17.54	50.0269
17.76	6.12887
17.98	0.376882
18.2	5.57106
18.42	3.48843
18.64	6.87617
18.86	20.1316
19.08	7.10253
19.3	5.65785
19.52	11.4784
19.74	5.44309
19.96	6.47758
20.18	1.5054
20.4	60.3387
20.62	62.9365
20.84	9.01816
21.06	0.871388
21.28	2.75243
21.5	3.80359
21.72	3.02207
21.94	4.27935
22.16	7.21812
22.38	23.131
22.6	57.9443
22.82	3.67669
23.04	4.96202
23.26	0.14791
23.48	5.48805
23.7	78.3963
23.92	58.4258
24.14	0.339501
24.36	16.0106
24.58	3.04172
24.8	3.19133
25.02	4.49098
25.24	2.58125
25.46	0.40629
25.68	2.34342
25.9	2.46209
26.12	6.25162
26.34	4.88369
26.56	46.3875
26.78	2.78877
27	2.72012
27.22	116.211
27.44	10.6255
27.66	7.31924
27.88	7.13323
28.1	1.09599
28.32	72.7966
28.54	11.633
28.76	4.53442
28.98	22.4953
29.2	8.05956
29.42	4.2812
29.64	64.5927
29.86	14.6951
30.08	1.955
30.3	0.929225
30.52	8.01751
30.74	2.25891
30.96	1.61447
31.18	9.51808
31.4	8.44669
31.62	14.1666
31.84	112.334
32.06	11.1728
32.28	9.0221
32.5	9.62886
32.72	110.512
32.94	6.56428
33.16	0.993711
33.38	10.4595
33.6	4.08566
33.82	120.4
34.04	6.26939
34.26	1.45148
34.48	4.60697
34.7	11.7564
34.92	2.87614
35.14	7.93589
35.36	15.8156
35.58	57.4862
35.8	17.2878
36.02	8.332
36.24	15.35
36.46	69.7669
36.68	7.65514
36.9	4.6224
37.12	3.7325
37.34	4.77903
37.56	4.68686
37.78	54.623
38	8.19068
38.22	6.33161
38.44	4.66138
38.66	10.1573
38.88	1.18274
39.1	11.211
39.32	3.33556
39.54	8.80656
39.76	42.6857
39.98	39.1121
40.2	116.171
40.42	18.7413
40.64	9.40574
40.86	0.331709
41.08	0.396728
41.3	10.3552
41.52	8.43506
41.74	39.7261
41.96	21.9098
42.18	10.4052
42.4	0.57211
42.62	1.26086
42.84	20.7791
43.06	5.04503
43.28	8.82772
43.5	7.88962
43.72	9.46083
43.94	17.4126
44.16	4.44473
44.38	4.18302
44.6	3.63465
44.82	2.86453
45.04	2.15199
45.26	2.88916
45.48	8.60797
45.7	0.133883
45.92	15.7178
46.14	1.54075
46.36	4.64568
46.58	13.5902
46.8	16.6857
47.02	4.73055
47.24	4.71016
47.46	10.6393
47.68	17.8571
47.9	2.03704
48.12	12.5077
48.34	95.886
48.56	18.1276
48.78	6.13836
49	13.3534
49.22	1.5531
49.44	0.367185
49.66	6.75358
49.88	21.8735
50.1	15.4217
50.32	13.5774
50.54	2.39391
50.76	13.0737
50.98	10.1995
51.2	8.17314
51.42	12.0833
51.64	10.0115
51.86	2.10617
52.08	0.838758
52.3	6.96825
52.52	30.6571
52.74	25.0304
52.96	1.82601
53.18	1.27933
53.4	10.2215
53.62	8.339
53.84	6.59279
54.06	6.70709
54.28	0.544852
54.5	19.0112
54.72	14.0508
54.94	2.06347
55.16	4.22238
55.38	7.73427
55.6	1.69335
55.82	1.49556
56.04	25.2684
56.26	10.5752
56.48	10.8235
56.7	20.7017
56.92	25.0365
57.14	0.972252
57.36	3.93976
57.58	0.880994
57.8	5.81705
58.02	10.7129
58.24	5.79987
58.46	20.031
58.68	4.7791
58.9	13.0646
59.12	11.5404
59.34	4.82018
59.56	3.29308
59.78	4.5366
60	5.07049
60.22	0.695572
60.44	3.69405
60.66	1.65178
60.88	6.41424
61.1	15.566
61.32	8.96965
61.54	5.60419
61.76	9.49604
61.98	5.8871
62.2	2.22561
62.42	3.87005
62.64	7.65031
62.86	2.74114
63.08	9.16671
63.3	4.19754
63.52	12.1793
63.74	6.38846
63.96	0.584114
64.18	12.352
64.4	15.494
64.62	14.9206
64.84	13.3979
65.06	13.5839
65.28	1.74707
65.5	5.92182
65.72	2.77892
65.94	4.28709
66.16	19.1389
66.38	12.4016
66.6	6.38251
66.82	6.48222
67.04	2.04307
67.26	1.06173
67.48	3.71904
67.7	2.43012
67.92	6.17039
68.14	11.4775
68.36	8.19001
68.58	11.397
68.8	18.3059
69.02	7.47644
69.24	5.16838
69.46	3.32671
69.68	0.318438
69.9	1.93089
70.12	2.2883
70.34	3.52745
70.56	7.03801
70.78	14.108
71	6.18488
71.22	4.31686
71.44	2.00383
71.66	5.82599
71.88	1.23723
72.1	11.3644
72.32	12.4219
72.54	8.49378
72.76	4.80265
72.98	3.46876
73.2	8.92451
73.42	4.89664
73.64	8.90853
73.86	11.9598
74.08	5.78334
74.3	12.4646
74.52	8.15039
74.74	9.0747
74.96	6.81496
75.18	13.9396
75.4	2.89932
75.62	9.59197
75.84	4.15904
76.06	6.3636
76.28	2.51095
76.5	5.7158
76.72	14.8106
76.94	2.02108
77.16	12.3694
77.38	10.3359
77.6	7.28451
77.82	5.48231
78.04	8.14228
78.26	3.9439
78.48	14.7568
78.7	6.61241
78.92	11.5968
79.14	7.54896
79.36	8.49286
79.58	5.26799
79.8	1.29334
80.02	3.58976
80.24	2.46273
80.46	9.25217
80.68	9.28971
80.9	5.26027
81.12	6.22291
81.34	5.16323
81.56	6.02315
81.78	6.85363
82	7.78504
82.22	4.59673
82.44	11.3866
82.66	7.25672
82.88	3.40498
83.1	14.3455
83.32	2.25214
83.54	1.73511
83.76	6.53939
83.98	10.5362
84.2	3.60054
84.42	3.67892
84.64	5.80358
84.86	7.86131
85.08	4.9952
85.3	9.09036
85.52	7.3048
85.74	8.43207
85.96	2.6962
86.18	11.4469
86.4	15.5647
86.62	8.06652
86.84	3.10634
87.06	7.01664
87.28	3.98066
87.5	3.02868
87.72	2.97235
87.94	3.88517
88.16	10.7492
88.38	4.56233
88.6	7.63355
88.82	7.61498
89.04	5.14064
89.26	8.1212
89.48	12.0419
89.7	0.736532
89.92	0.046867
