Measurement: Powder, Xray Data XY Processed
Mineral: Kutnohorite
Rruff sample: R060473
Ideal chemistry: CaMn^2+^(CO_3_)_2_
Locality: N'Chwaning II mine, Kalahari manganese field, northern Cape Province, Republic of South Africa
Source: Michael Scott
Description: Aggregate of parallel pink colored acicular crystals
Diffraction sample description: Powder, mixture with a second carbonate phase
Measured chemistry: Ca_1.00_(Mn^2+^_0.63_Ca_0.35_Mg_0.02_)(CO_3_)_2_
Cell parameters: a: 4.9171(6) b: 4.9171(6) c: 16.607(4) alpha: 90 beta: 90 gamma: 120 volume: 347.73(9) crystal system: hexagonal
x	intensity
5	0
5.22	5.77859
5.44	5.98752
5.66	20.1259
5.88	7.29236
6.1	9.64504
6.32	8.01349
6.54	20.004
6.76	23.9484
6.98	23.3775
7.2	11.3544
7.42	5.89879
7.64	17.2153
7.86	3.5839
8.08	9.23727
8.3	16.7011
8.52	4.69155
8.74	20.9159
8.96	14.3746
9.18	9.3734
9.4	4.68439
9.62	4.9757
9.84	2.04481
10.06	13.2039
10.28	1.14055
10.5	10.7968
10.72	10.9709
10.94	4.24955
11.16	17.1611
11.38	3.22701
11.6	13.4998
11.82	12.2003
12.04	1.80854
12.26	1.0259
12.48	5.08377
12.7	15.1819
12.92	6.21677
13.14	2.88623
13.36	15.7909
13.58	15.2098
13.8	10.3686
14.02	11.3326
14.24	1.0907
14.46	6.48094
14.68	10.1181
14.9	8.66257
15.12	7.98357
15.34	9.27301
15.56	3.53254
15.78	8.20495
16	4.75456
16.22	12.9057
16.44	5.95397
16.66	3.39341
16.88	9.22689
17.1	9.94105
17.32	22.7863
17.54	11.6031
17.76	13.891
17.98	14.9052
18.2	2.31164
18.42	0.896505
18.64	9.94691
18.86	6.45768
19.08	7.30413
19.3	2.00943
19.52	3.88817
19.74	14.2686
19.96	2.2998
20.18	11.0671
20.4	2.18352
20.62	8.3085
20.84	3.98613
21.06	5.21521
21.28	1.77503
21.5	12.534
21.72	1.78638
21.94	4.65229
22.16	1.97596
22.38	16.7067
22.6	9.31688
22.82	9.82725
23.04	14.4963
23.26	5.75281
23.48	22.4454
23.7	9.5044
23.92	30.6132
24.14	12.3942
24.36	11.4183
24.58	13.862
24.8	12.349
25.02	9.64853
25.24	10.1809
25.46	14.5535
25.68	2.66042
25.9	5.88444
26.12	3.13638
26.34	9.21541
26.56	11.3314
26.78	5.35369
27	17.8942
27.22	8.97942
27.44	8.73361
27.66	1.92582
27.88	10.8236
28.1	0.742752
28.32	0.559242
28.54	19.6897
28.76	5.10086
28.98	9.6532
29.2	5.43066
29.42	5.14851
29.64	5.60138
29.86	12.3276
30.08	179.809
30.3	31.0693
30.52	16.4964
30.74	65.4687
30.96	51.1319
31.18	38.8479
31.4	13.7196
31.62	12.8721
31.84	6.07712
32.06	13.2722
32.28	7.34363
32.5	5.31471
32.72	15.3879
32.94	24.1216
33.16	0.557381
33.38	15.8007
33.6	11.6057
33.82	19.3205
34.04	2.33339
34.26	5.93585
34.48	9.64721
34.7	14.3174
34.92	2.30373
35.14	3.28056
35.36	0.800795
35.58	9.06622
35.8	1.26426
36.02	4.90913
36.24	10.1583
36.46	16.9341
36.68	19.1797
36.9	12.4531
37.12	14.046
37.34	12.992
37.56	4.14594
37.78	6.35647
38	13.4239
38.22	2.86395
38.44	11.1614
38.66	12.2425
38.88	10.3316
39.1	6.38076
39.32	10.5657
39.54	6.74983
39.76	18.4813
39.98	9.01109
40.2	28.196
40.42	3.66841
40.64	7.51406
40.86	23.3443
41.08	2.28548
41.3	13.5579
41.52	16.0372
41.74	3.83579
41.96	2.63224
42.18	2.98462
42.4	12.1577
42.62	0.086275
42.84	2.67842
43.06	3.49099
43.28	7.44646
43.5	4.16887
43.72	9.65997
43.94	21.3018
44.16	11.9026
44.38	4.18686
44.6	25.8822
44.82	12.4393
45.04	4.12101
45.26	2.39026
45.48	3.77518
45.7	4.92293
45.92	12.4806
46.14	0.963451
46.36	20.5592
46.58	12.5279
46.8	4.45049
47.02	15.0741
47.24	5.8572
47.46	2.88482
47.68	1.11417
47.9	5.21342
48.12	17.5059
48.34	0.980124
48.56	10.9592
48.78	19.7328
49	18.7477
49.22	11.8185
49.44	7.9289
49.66	28.3835
49.88	3.80461
50.1	8.13973
50.32	7.36272
50.54	11.5657
50.76	7.34817
50.98	15.2577
51.2	11.3752
51.42	8.24937
51.64	13.5534
51.86	7.87526
52.08	8.18808
52.3	8.18033
52.52	12.156
52.74	12.8238
52.96	6.66569
53.18	14.1612
53.4	9.3451
53.62	2.6528
53.84	21.9244
54.06	20.583
54.28	17.2915
54.5	10.085
54.72	16.4032
54.94	5.27622
55.16	14.1669
55.38	16.9016
55.6	2.47105
55.82	9.57706
56.04	23.6929
56.26	24.7397
56.48	8.55663
56.7	16.4512
56.92	9.40698
57.14	4.08735
57.36	16.8965
57.58	1.58792
57.8	15.7575
58.02	10.1846
58.24	4.17092
58.46	5.78393
58.68	10.5528
58.9	6.382
59.12	13.3283
59.34	5.15275
59.56	10.7151
59.78	8.86154
60	9.03859
60.22	15.6662
60.44	2.53469
60.66	7.22911
60.88	12.6182
61.1	8.54854
61.32	12.6463
61.54	0.516672
61.76	9.53413
61.98	19.3424
62.2	1.33883
62.42	11.5105
62.64	18.6385
62.86	9.4836
63.08	5.6402
63.3	17.9028
63.52	3.08203
63.74	13.3572
63.96	0.504057
64.18	25.8873
64.4	13.0223
64.62	20.8368
64.84	3.88862
65.06	4.23587
65.28	12.2109
65.5	15.112
65.72	15.3333
65.94	11.2228
66.16	20.7163
66.38	5.54518
66.6	8.36051
66.82	9.40062
67.04	5.62736
67.26	0.286358
67.48	1.57044
67.7	11.7905
67.92	5.10259
68.14	7.49408
68.36	17.0976
68.58	7.28084
68.8	0.437366
69.02	12.4965
69.24	2.50158
69.46	6.71675
69.68	12.7488
69.9	18.9968
70.12	11.1656
70.34	4.44064
70.56	9.37042
70.78	21.2828
71	10.6027
71.22	0.251381
71.44	15.8447
71.66	0.123568
71.88	17.82
72.1	13.1015
72.32	7.35513
72.54	10.984
72.76	13.5977
72.98	12.6249
73.2	17.5074
73.42	6.44314
73.64	13.2366
73.86	15.3249
74.08	15.4448
74.3	8.40439
74.52	9.52151
74.74	5.41503
74.96	5.5037
75.18	24.5205
75.4	1.52982
75.62	9.35966
75.84	9.31276
76.06	15.7771
76.28	3.85675
76.5	20.7623
76.72	10.4332
76.94	28.5441
77.16	0.435184
77.38	9.40633
77.6	13.3623
77.82	9.44371
78.04	12.5369
78.26	4.08562
78.48	11.9753
78.7	13.1129
78.92	3.26733
79.14	6.44359
79.36	25.1637
79.58	8.30695
79.8	15.3034
80.02	8.40656
80.24	3.61471
80.46	6.49711
80.68	19.6672
80.9	13.1625
81.12	1.59053
81.34	1.59371
81.56	11.3621
81.78	5.13617
82	10.4177
82.22	23.5176
82.44	14.5809
82.66	6.4843
82.88	7.26401
83.1	8.13231
83.32	13.401
83.54	7.37724
83.76	8.48617
83.98	9.44252
84.2	3.47372
84.42	0.941999
84.64	5.15993
84.86	6.72883
85.08	12.2139
85.3	18.4106
85.52	6.98409
85.74	6.45664
85.96	13.3267
86.18	6.01757
86.4	3.07853
86.62	8.75214
86.84	6.06036
87.06	9.83776
87.28	22.0198
87.5	12.185
87.72	0.556953
87.94	11.7232
88.16	9.72255
88.38	16.8371
88.6	3.14469
88.82	13.2605
89.04	5.42401
89.26	9.47967
89.48	19.6077
89.7	13.4838
89.92	6.27153
