Measurement: Powder, Xray Data XY Processed
Mineral: Kyanite
Rruff sample: R050450
Ideal chemistry: Al_2_OSiO_4_
Locality: Switzerland
Source: Marcus Origlieri
Description: Blue bladed crystals
Diffraction sample description: Powder
Measured chemistry: Al_2.00_OSi_1.00_O_4_
Cell parameters: a: 7.1212(2) b: 7.8487(1) c: 5.5733(1) alpha: 89.933(8) beta: 101.157(5) gamma: 106.007(3) volume: 293.324(7) crystal system: triclinic
x	intensity
5	0
5.22	15.859
5.44	4.395
5.66	16.025
5.88	13.026
6.1	11.594
6.32	10.593
6.54	4.68
6.76	2.378
6.98	7.507
7.2	8.523
7.42	4.283
7.64	3.995
7.86	4.488
8.08	7.209
8.3	13.539
8.52	3.826
8.74	0.175
8.96	7.446
9.18	17.91
9.4	9.272
9.62	5.429
9.84	8.884
10.06	4.248
10.28	4.546
10.5	10.431
10.72	4.049
10.94	2.473
11.16	9.593
11.38	1.491
11.6	7.373
11.82	5.389
12.04	2.18
12.26	4.04
12.48	9.889
12.7	6.774
12.92	7.672
13.14	13.222
13.36	8.952
13.58	6.889
13.8	0.706
14.02	5.703
14.24	4.686
14.46	3.766
14.68	8.875
14.9	18.944
15.12	12.214
15.34	8.391
15.56	0.935
15.78	3.03
16	5.311
16.22	0.62
16.44	5.917
16.66	5.009
16.88	1.373
17.1	3.921
17.32	7.266
17.54	8.333
17.76	5.491
17.98	9.285
18.2	4.301
18.42	7.387
18.64	8.247
18.86	3.94
19.08	6.698
19.3	4.325
19.52	5.7
19.74	10.307
19.96	9.094
20.18	10.884
20.4	8.757
20.62	35.857
20.84	12.777
21.06	1.966
21.28	0.113
21.5	6.543
21.72	3.977
21.94	5.304
22.16	0.546
22.38	3.531
22.6	1.354
22.82	5.498
23.04	4.375
23.26	11.231
23.48	5.174
23.7	49.377
23.92	10.234
24.14	4.803
24.36	1.798
24.58	2.572
24.8	3.177
25.02	4.873
25.24	6.382
25.46	5.779
25.68	3.133
25.9	50.5
26.12	6.615
26.34	14.519
26.56	392.079
26.78	34.12
27	10.832
27.22	3.63
27.44	1.339
27.66	22.429
27.88	73.592
28.1	210.272
28.32	18.366
28.54	6.57
28.76	1.203
28.98	9.482
29.2	7.88
29.42	8.273
29.64	33.094
29.86	13.556
30.08	0.37
30.3	88.874
30.52	5.067
30.74	1.714
30.96	6.106
31.18	2.249
31.4	3.36
31.62	3.371
31.84	2.299
32.06	7.75
32.28	2.531
32.5	10.913
32.72	4.867
32.94	12.557
33.16	115.091
33.38	40.849
33.6	11.9
33.82	8.117
34.04	7.228
34.26	8.205
34.48	12.234
34.7	4.322
34.92	4.219
35.14	10.117
35.36	3.036
35.58	53.219
35.8	87.647
36.02	8.132
36.24	4.338
36.46	9.557
36.68	0.816
36.9	0.991
37.12	0.152
37.34	3.171
37.56	0.119
37.78	4.198
38	44.292
38.22	93.402
38.44	19.047
38.66	30.425
38.88	1.125
39.1	4.104
39.32	2.906
39.54	4.672
39.76	24.45
39.98	12.455
40.2	2.1
40.42	29.497
40.64	19.149
40.86	53.86
41.08	2.777
41.3	7.005
41.52	17.587
41.74	57.136
41.96	24.548
42.18	6.014
42.4	6.364
42.62	8.204
42.84	0.869
43.06	8.389
43.28	7.942
43.5	1.515
43.72	2.722
43.94	5.146
44.16	1.546
44.38	6.127
44.6	3.501
44.82	3.079
45.04	9.732
45.26	50.718
45.48	9.817
45.7	11.75
45.92	10.843
46.14	28.969
46.36	104.84
46.58	14.39
46.8	58.434
47.02	160.703
47.24	67.955
47.46	2.864
47.68	3.131
47.9	1.494
48.12	4.093
48.34	12.705
48.56	12.548
48.78	5.913
49	8.918
49.22	6.15
49.44	3.806
49.66	8.148
49.88	3.84
50.1	5.602
50.32	8.582
50.54	4.496
50.76	10.36
50.98	3.893
51.2	6.581
51.42	6.534
51.64	20.502
51.86	51.241
52.08	8.359
52.3	4.689
52.52	12.029
52.74	6.618
52.96	4.201
53.18	7.59
53.4	6.008
53.62	9.281
53.84	6.517
54.06	5.679
54.28	7.51
54.5	6.731
54.72	19.534
54.94	15.592
55.16	9.166
55.38	1.296
55.6	5.417
55.82	8.044
56.04	4.145
56.26	1.875
56.48	7.675
56.7	11.189
56.92	13.796
57.14	4.299
57.36	5.296
57.58	6.249
57.8	24.35
58.02	35.599
58.24	7.048
58.46	6.228
58.68	15.557
58.9	3.826
59.12	1.187
59.34	1.857
59.56	0.205
59.78	5.357
60	0.847
60.22	8.039
60.44	1.884
60.66	5.499
60.88	1.865
61.1	1.884
61.32	4.623
61.54	23.279
61.76	34.524
61.98	5.274
62.2	4.09
62.42	0.705
62.64	9.667
62.86	39.868
63.08	46.901
63.3	13.062
63.52	0.158
63.74	7.391
63.96	5.622
64.18	1.913
64.4	4.205
64.62	2.896
64.84	4.694
65.06	3.269
65.28	6.155
65.5	1.906
65.72	1.688
65.94	14.935
66.16	14.237
66.38	7.43
66.6	5.832
66.82	5.014
67.04	11.023
67.26	20.659
67.48	3.397
67.7	17.5
67.92	43.97
68.14	162.081
68.36	57.297
68.58	13.604
68.8	13.991
69.02	10.382
69.24	1.721
69.46	15.164
69.68	16.735
69.9	16.241
70.12	229.333
70.34	127.952
70.56	1.228
70.78	2.8
71	0.883
71.22	3.476
71.44	4.085
71.66	6.612
71.88	5.752
72.1	6.802
72.32	6.887
72.54	2.724
72.76	1.09
72.98	5.156
73.2	13.281
73.42	8.329
73.64	11.37
73.86	5.337
74.08	1.632
74.3	2.37
74.52	1.367
74.74	4.394
74.96	3.687
75.18	4.446
75.4	10.384
75.62	9.287
75.84	1.508
76.06	6.839
76.28	6.689
76.5	11.683
76.72	6.745
76.94	6.808
77.16	8.862
77.38	0.221
77.6	4.735
77.82	5.698
78.04	8.671
78.26	2.287
78.48	6.126
78.7	2.236
78.92	3.049
79.14	4.38
79.36	0.326
79.58	4.433
79.8	6.553
80.02	3.585
80.24	1.586
80.46	7.49
80.68	5.452
80.9	3.567
81.12	6.449
81.34	10.131
81.56	19.178
81.78	6.497
82	4.274
82.22	7.456
82.44	8.767
82.66	1.98
82.88	10.216
83.1	3.35
83.32	3.393
83.54	4.453
83.76	0.767
83.98	3.754
84.2	4.8
84.42	1.835
84.64	0.691
84.86	8.785
85.08	2.723
85.3	7.647
85.52	4.693
85.74	7.639
85.96	5.559
86.18	1.13
86.4	3.045
86.62	5.122
86.84	6.303
87.06	4.995
87.28	2.019
87.5	5.967
87.72	3.127
87.94	0.655
88.16	19.855
88.38	8.939
88.6	4.583
88.82	4.958
89.04	3.659
89.26	6.528
89.48	11.085
89.7	10.662
89.92	4.847
