Measurement: Powder, Xray Data XY Processed
Mineral: Lamprophyllite
Rruff sample: R070284
Ideal chemistry: (SrNa)Ti^4+^_2_Na_3_Ti^4+^(Si_2_O_7_)_2_O_2_(OH)_2_
Locality: Lovozero Massif,  Kola Peninsula,  Murmanskaja Oblast',  Northern Region,  Russia
Source: Michael Scott
Description: Stellate groups of transparent brown bladed crystals
Diffraction sample description: Powder
Measured chemistry: (Na_2.35_Mn_0.36_Mg_0.17_Ca_0.12_)(Sr_1.08_Na_0.35_K_0.09_Ba_0.01_)(Ti_2.80_Fe_0.26_Al_0.02_)Si_3.87_O_16_[(OH)_1.14_F_0.86_]
Cell parameters: a: 19.2802(9) b: 7.0781(4) c: 5.3805(8) alpha: 90 beta: 96.753(8) gamma: 90 volume: 729.2(1) crystal system: monoclinic
x	intensity
5	0
5.22	12.0636
5.44	3.50151
5.66	15.0621
5.88	5.08382
6.1	18.45
6.32	14.471
6.54	12.792
6.76	12.1432
6.98	18.0365
7.2	18.6819
7.42	8.11758
7.64	4.88843
7.86	13.2438
8.08	9.62557
8.3	1.78817
8.52	6.71717
8.74	5.29587
8.96	7.81998
9.18	39.5435
9.4	18.4551
9.62	4.507
9.84	15.7461
10.06	0.9181
10.28	9.45545
10.5	11.6194
10.72	19.9363
10.94	6.18256
11.16	12.4295
11.38	12.3392
11.6	10.1741
11.82	13.1461
12.04	11.5727
12.26	7.40676
12.48	18.9665
12.7	4.9942
12.92	0.002283
13.14	5.13239
13.36	15.9979
13.58	9.93261
13.8	5.40416
14.02	3.37604
14.24	6.30602
14.46	16.4912
14.68	3.9951
14.9	4.69444
15.12	21.7721
15.34	8.91948
15.56	5.7212
15.78	14.9573
16	0.938921
16.22	1.28072
16.44	9.59978
16.66	3.68268
16.88	13.2713
17.1	3.84408
17.32	7.41542
17.54	13.1415
17.76	3.98573
17.98	9.92518
18.2	3.71023
18.42	15.5844
18.64	10.6421
18.86	13.0783
19.08	2.32051
19.3	13.4543
19.52	6.72995
19.74	11.5295
19.96	8.59136
20.18	2.97499
20.4	17.8266
20.62	10.7966
20.84	3.82889
21.06	8.7324
21.28	7.51506
21.5	1.15576
21.72	8.61884
21.94	7.64415
22.16	11.967
22.38	0.830875
22.6	7.84888
22.82	3.97938
23.04	0.978943
23.26	10.4249
23.48	5.29397
23.7	7.60285
23.92	33.4576
24.14	7.67306
24.36	7.328
24.58	8.65555
24.8	6.44915
25.02	10.89
25.24	44.2866
25.46	8.44823
25.68	10.6608
25.9	6.92145
26.12	30.5507
26.34	23.042
26.56	64.5232
26.78	10.8671
27	3.62454
27.22	5.05684
27.44	11.9461
27.66	38.8991
27.88	217.588
28.1	242.792
28.32	17.599
28.54	4.40379
28.76	5.48828
28.98	8.74453
29.2	4.8424
29.42	7.6692
29.64	17.2441
29.86	68.7786
30.08	17.2419
30.3	8.94269
30.52	0.840485
30.74	4.53833
30.96	24.8128
31.18	2.13621
31.4	14.4135
31.62	5.84037
31.84	5.62183
32.06	4.34895
32.28	65.0902
32.5	20.4201
32.72	8.77077
32.94	48.0124
33.16	12.2706
33.38	0.264812
33.6	24.3577
33.82	16.2052
34.04	9.94874
34.26	1.42759
34.48	32.6809
34.7	33.6592
34.92	19.8891
35.14	106.48
35.36	20.3452
35.58	6.66958
35.8	1.88604
36.02	7.43205
36.24	12.4707
36.46	13.6062
36.68	12.1715
36.9	9.99333
37.12	10.325
37.34	6.77826
37.56	15.8572
37.78	7.21129
38	13.5721
38.22	6.78903
38.44	5.02608
38.66	5.11182
38.88	9.66684
39.1	13.5466
39.32	10.2354
39.54	7.28275
39.76	10.1532
39.98	14.5057
40.2	19.4921
40.42	10.2908
40.64	11.7707
40.86	12.8594
41.08	16.7506
41.3	6.05971
41.52	12.7438
41.74	3.55147
41.96	11.769
42.18	9.25588
42.4	31.9854
42.62	19.9459
42.84	12.3199
43.06	16.5087
43.28	22.0403
43.5	4.97773
43.72	7.21572
43.94	1.37334
44.16	17.1888
44.38	41.2746
44.6	60.5132
44.82	1.09085
45.04	9.41807
45.26	6.13224
45.48	7.23841
45.7	15.6291
45.92	8.25923
46.14	0.332191
46.36	30.3541
46.58	14.6315
46.8	5.35836
47.02	17.8346
47.24	4.81095
47.46	22.5798
47.68	10.9931
47.9	9.57072
48.12	7.7088
48.34	0.492746
48.56	1.55767
48.78	9.74918
49	12.0677
49.22	7.71995
49.44	11.3285
49.66	22.3125
49.88	18.1076
50.1	3.82175
50.32	0.738163
50.54	3.83217
50.76	9.7401
50.98	1.92928
51.2	6.65547
51.42	9.26288
51.64	20.121
51.86	2.26034
52.08	8.42205
52.3	18.6717
52.52	25.1858
52.74	10.5905
52.96	17.3708
53.18	2.93806
53.4	14.2768
53.62	8.33545
53.84	6.29615
54.06	6.07735
54.28	10.9146
54.5	12.4335
54.72	21.0547
54.94	19.9732
55.16	20.5393
55.38	12.4443
55.6	22.1675
55.82	13.7052
56.04	18.6323
56.26	15.0767
56.48	8.15605
56.7	9.00708
56.92	0.860245
57.14	2.6773
57.36	21.7208
57.58	4.33112
57.8	18.3676
58.02	10.0282
58.24	1.06936
58.46	4.36545
58.68	8.18958
58.9	6.40705
59.12	18.8132
59.34	37.1182
59.56	3.42685
59.78	15.7989
60	19.5546
60.22	6.75755
60.44	1.90915
60.66	5.33112
60.88	2.58471
61.1	7.27541
61.32	14.4803
61.54	8.37613
61.76	13.2019
61.98	5.75109
62.2	9.39499
62.42	4.34106
62.64	18.9136
62.86	5.32031
63.08	9.28393
63.3	10.7544
63.52	0.596136
63.74	11.8471
63.96	9.55846
64.18	1.3952
64.4	10.3632
64.62	37.8531
64.84	13.7449
65.06	11.3954
65.28	20.8981
65.5	10.3318
65.72	7.8995
65.94	15.8785
66.16	7.7956
66.38	15.4971
66.6	4.38061
66.82	15.6549
67.04	11.7216
67.26	11.744
67.48	5.68018
67.7	8.63303
67.92	4.24827
68.14	13.0694
68.36	14.6321
68.58	63.2418
68.8	31.7202
69.02	8.47478
69.24	11.2743
69.46	2.057
69.68	3.17139
69.9	9.61721
70.12	13.8276
70.34	17.4963
70.56	16.8664
70.78	8.75028
71	8.74476
71.22	8.96131
71.44	0.881758
71.66	18.8351
71.88	4.92071
72.1	8.70071
72.32	18.4518
72.54	21.6498
72.76	13.9884
72.98	9.58366
73.2	17.5366
73.42	8.27891
73.64	4.14155
73.86	6.11599
74.08	8.65717
74.3	6.70155
74.52	8.94583
74.74	8.05987
74.96	7.00761
75.18	13.4372
75.4	1.82171
75.62	0.004349
75.84	4.32825
76.06	6.7789
76.28	8.03635
76.5	2.31138
76.72	16.9291
76.94	18.0491
77.16	7.24638
77.38	2.30336
77.6	9.40139
77.82	11.0167
78.04	7.18512
78.26	8.48653
78.48	6.33378
78.7	16.6185
78.92	2.19962
79.14	12.8828
79.36	6.67127
79.58	7.30356
79.8	15.1526
80.02	2.39187
80.24	9.59959
80.46	9.4391
80.68	0.899914
80.9	10.6143
81.12	12.4121
81.34	3.23326
81.56	3.95523
81.78	9.85297
82	6.9157
82.22	16.0852
82.44	6.98995
82.66	4.1129
82.88	1.29627
83.1	18.5485
83.32	3.72334
83.54	5.62306
83.76	1.3856
83.98	10.8109
84.2	3.08776
84.42	13.1253
84.64	10.6667
84.86	13.6626
85.08	0.658623
85.3	9.70615
85.52	11.5307
85.74	4.50427
85.96	14.8506
86.18	8.92578
86.4	3.92013
86.62	11.7885
86.84	11.8143
87.06	8.11539
87.28	5.24294
87.5	1.63066
87.72	4.70122
87.94	10.032
88.16	0.88661
88.38	8.58702
88.6	10.4444
88.82	6.01464
89.04	3.92242
89.26	5.72869
89.48	5.16147
89.7	2.13852
89.92	12.3516
