Measurement: Powder, Xray Data XY Processed
Mineral: Laumontite
Rruff sample: R040020
Ideal chemistry: Ca(Si_4_Al_2_)O_12_4H_2_O
Locality: Pine Creek Tungsten mine, Bishop, Inyo County, California, USA
Source: University of Arizona Mineral Museum
Description: Pale gray long prism coated with smaller crystals
Diffraction sample description: Powder
Measured chemistry: (Ca_0.99_K_0.01_)_Σ=1_(Si_4.01_Al_1.99_)O_12_·4H_2_O; H_2_O estimated by difference
Cell parameters: a: 14.7456(7) b: 13.0661(5) c: 7.5598(4) alpha: 90. beta: 112.037(4) gamma: 90. volume: 1350.12(8) crystal system: monoclinic
x	intensity
5	0
5.22	18.244
5.44	11.123
5.66	3.666
5.88	7.275
6.1	10.491
6.32	17.292
6.54	5.325
6.76	11.145
6.98	14.664
7.2	8.562
7.42	9.274
7.64	15.05
7.86	16.793
8.08	6.129
8.3	4.089
8.52	31.063
8.74	4.839
8.96	12.113
9.18	44.245
9.4	2400.52
9.62	35.449
9.84	8.657
10.06	3.151
10.28	5.956
10.5	10.556
10.72	5.882
10.94	10.353
11.16	5.815
11.38	7.077
11.6	3.848
11.82	4.691
12.04	2.489
12.26	5.014
12.48	0.47
12.7	6.536
12.92	128.316
13.14	42.105
13.36	4.824
13.58	32.714
13.8	5.656
14.02	11.994
14.24	7.595
14.46	11.231
14.68	5.991
14.9	6.578
15.12	10.258
15.34	3.522
15.56	7.588
15.78	4.022
16	1.069
16.22	5.214
16.44	3.261
16.66	1.981
16.88	3.741
17.1	10.415
17.32	1.679
17.54	13.22
17.76	9.929
17.98	5.146
18.2	5.206
18.42	2.313
18.64	11.541
18.86	196.618
19.08	6.578
19.3	10.351
19.52	1.622
19.74	46.031
19.96	10.936
20.18	5.827
20.4	2.477
20.62	0.261
20.84	4.51
21.06	4.756
21.28	77.595
21.5	978.455
21.72	13.95
21.94	7.067
22.16	9.775
22.38	0.216
22.6	5.42
22.82	7.877
23.04	14.812
23.26	3.959
23.48	9.617
23.7	47.712
23.92	5.546
24.14	4.178
24.36	256.634
24.58	1.234
24.8	14.124
25.02	8.087
25.24	17.46
25.46	473.378
25.68	23.76
25.9	8.893
26.12	85.403
26.34	9.959
26.56	111.919
26.78	0.207
27	3.416
27.22	15.607
27.44	276.167
27.66	7.236
27.88	48.243
28.1	4.939
28.32	22.736
28.54	0.08
28.76	3.503
28.98	21.721
29.2	4.424
29.42	92.186
29.64	161.87
29.86	7.484
30.08	8.831
30.3	5.505
30.52	6.588
30.74	4.006
30.96	7.317
31.18	75.292
31.4	8.967
31.62	2.974
31.84	2.841
32.06	59.898
32.28	1.295
32.5	5.799
32.72	3.69
32.94	24.639
33.16	1.596
33.38	5.622
33.6	1.326
33.82	0.735
34.04	12.585
34.26	17.556
34.48	4.365
34.7	6.853
34.92	198.852
35.14	9.443
35.36	35.411
35.58	13.357
35.8	49.283
36.02	1.817
36.24	2.224
36.46	25.373
36.68	13.396
36.9	145.61
37.12	14.735
37.34	3.4
37.56	0.501
37.78	13.604
38	3.783
38.22	92.496
38.44	21.708
38.66	12.178
38.88	19.278
39.1	5.409
39.32	0.559
39.54	18.495
39.76	92.453
39.98	14.09
40.2	10.025
40.42	1.56
40.64	2.183
40.86	26.019
41.08	8.968
41.3	0.209
41.52	126.55
41.74	32.743
41.96	65.989
42.18	62.994
42.4	6.716
42.62	3.151
42.84	3.015
43.06	1.908
43.28	21.143
43.5	31.426
43.72	17.954
43.94	12.871
44.16	9.848
44.38	14.633
44.6	3.656
44.82	4.864
45.04	8.158
45.26	10.115
45.48	12.123
45.7	37.07
45.92	1.986
46.14	4.948
46.36	45.503
46.58	42.26
46.8	11.996
47.02	4.374
47.24	13.812
47.46	7.259
47.68	11.923
47.9	5.668
48.12	3.464
48.34	32.008
48.56	9.392
48.78	23.145
49	3.237
49.22	21.878
49.44	57.792
49.66	7.167
49.88	10.626
50.1	12.213
50.32	6.8
50.54	3.413
50.76	9.76
50.98	13.074
51.2	4.553
51.42	2.914
51.64	2.764
51.86	7.681
52.08	32.805
52.3	9.387
52.52	1.423
52.74	14.178
52.96	2.232
53.18	3.54
53.4	12.192
53.62	28.318
53.84	33.082
54.06	18.164
54.28	4.119
54.5	6.906
54.72	7.177
54.94	1.982
55.16	11.764
55.38	4.528
55.6	2.777
55.82	10.217
56.04	12.765
56.26	52.018
56.48	40.8
56.7	25.759
56.92	21.817
57.14	5.986
57.36	6.977
57.58	13.201
57.8	1.363
58.02	36.382
58.24	11.772
58.46	25.187
58.68	4.071
58.9	1.108
59.12	22.102
59.34	7.013
59.56	9.859
59.78	2.792
60	0.402
60.22	6.681
60.44	25.663
60.66	0.655
60.88	52.914
61.1	24.666
61.32	1.304
61.54	8.048
61.76	0.746
61.98	5.435
62.2	6.599
62.42	8.886
62.64	8.337
62.86	4.75
63.08	30.378
63.3	20.349
63.52	2.403
63.74	7.395
63.96	7.065
64.18	5.938
64.4	12.073
64.62	18.02
64.84	28.751
65.06	48.544
65.28	12.272
65.5	1.032
65.72	16.766
65.94	3.66
66.16	2.792
66.38	5.722
66.6	3.673
66.82	19.515
67.04	2.7
67.26	3.507
67.48	6.827
67.7	12.815
67.92	5.061
68.14	10.378
68.36	6.742
68.58	6.664
68.8	18.758
69.02	6.826
69.24	10.71
69.46	1.451
69.68	10.724
69.9	24.169
70.12	27.894
70.34	21.593
70.56	1.524
70.78	0.913
71	112.244
71.22	27.113
71.44	0.952
71.66	3.047
71.88	2.587
72.1	5.559
72.32	70.715
72.54	91.172
72.76	20.1
72.98	3.376
73.2	2.611
73.42	3.483
73.64	7.341
73.86	12.121
74.08	5.316
74.3	3.807
74.52	8.82
74.74	1.085
74.96	8.003
75.18	17.168
75.4	15.544
75.62	2.071
75.84	8.401
76.06	9.886
76.28	0.523
76.5	9.503
76.72	0.471
76.94	7.387
77.16	5.316
77.38	3.397
77.6	35.327
77.82	23.18
78.04	14.296
78.26	8.434
78.48	14.621
78.7	6.846
78.92	4.073
79.14	3.209
79.36	4.305
79.58	0.517
79.8	3.367
80.02	4.29
80.24	3.429
80.46	13.93
80.68	17.533
80.9	29.2
81.12	17.214
81.34	7.114
81.56	8.395
81.78	5.311
82	7.098
82.22	4.061
82.44	5.029
82.66	2.186
82.88	14.839
83.1	2.812
83.32	4.711
83.54	6.576
83.76	0.668
83.98	0.266
84.2	11.979
84.42	12.337
84.64	7.616
84.86	3.956
85.08	4.538
85.3	9.693
85.52	8.357
85.74	3.658
85.96	8.868
86.18	5.049
86.4	1.724
86.62	2.237
86.84	0.301
87.06	7.744
87.28	11.812
87.5	8.826
87.72	3.84
87.94	9.571
88.16	4.606
88.38	2.78
88.6	0.056
88.82	5.981
89.04	11.24
89.26	3.446
89.48	12.016
89.7	7.896
89.92	9.136
