Measurement: Powder, Xray Data XY Processed
Mineral: Lawsonite
Rruff sample: R050042
Ideal chemistry: CaAl_2_Si_2_O_7_(OH)_2_H_2_O
Locality: California, USA
Source: University of Arizona Mineral Museum
Description: White to colorless fragments
Diffraction sample description: Powder
Measured chemistry: (Ca_0.98_Fe^2+^_0.02_)Al_2.00_Si_2.00_O_7_(OH)_2_Â·H_2_O
Cell parameters: a: 5.8477(1) b: 8.7946(1) c: 13.1324(2) alpha: 90. beta: 90. gamma: 90. volume: 675.38(1) crystal system: orthorhombic
x	intensity
5	0
5.22	15.341
5.44	4.507
5.66	12.872
5.88	1.949
6.1	2.87
6.32	8.424
6.54	0.621
6.76	5.772
6.98	6.7
7.2	4.894
7.42	8.102
7.64	6.251
7.86	2.965
8.08	10.463
8.3	9.969
8.52	0.159
8.74	6.598
8.96	5.119
9.18	15.355
9.4	9.039
9.62	6.713
9.84	5.188
10.06	2.963
10.28	9.975
10.5	0.34
10.72	1.179
10.94	9.077
11.16	1.417
11.38	7.387
11.6	7.346
11.82	2.992
12.04	12.511
12.26	9.184
12.48	2.796
12.7	8.829
12.92	5.772
13.14	6.606
13.36	12.514
13.58	30.522
13.8	9.574
14.02	2.681
14.24	4.048
14.46	7.105
14.68	6.104
14.9	3.207
15.12	5.043
15.34	3.889
15.56	2.012
15.78	1.456
16	5.44
16.22	4.668
16.44	5.789
16.66	5.964
16.88	5.066
17.1	0.01
17.32	2.034
17.54	9.165
17.76	7.21
17.98	7.15
18.2	117.92
18.42	13.829
18.64	2.68
18.86	3.95
19.08	6.677
19.3	7.782
19.52	101.995
19.74	4.327
19.96	3.21
20.18	0.728
20.4	7.074
20.62	11.352
20.84	0.418
21.06	5.436
21.28	29.34
21.5	7.513
21.72	7.334
21.94	3.663
22.16	4.151
22.38	4.182
22.6	3.25
22.82	14.208
23.04	1.793
23.26	5.206
23.48	2.135
23.7	6.972
23.92	4.886
24.14	7.95
24.36	120.549
24.58	9.217
24.8	2.726
25.02	6.975
25.24	7.468
25.46	4.513
25.68	5.835
25.9	2.993
26.12	9.048
26.34	1.074
26.56	6.073
26.78	9.031
27	2.196
27.22	7.039
27.44	145.869
27.66	3.46
27.88	11.6
28.1	7.64
28.32	2.413
28.54	5.553
28.76	1.677
28.98	7.92
29.2	8.869
29.42	2.576
29.64	10.214
29.86	6.245
30.08	0.877
30.3	0.296
30.52	22.271
30.74	27.712
30.96	3.795
31.18	8.656
31.4	0.561
31.62	3.212
31.84	7.733
32.06	2.123
32.28	1.383
32.5	2.574
32.72	5.575
32.94	379.59
33.16	12.503
33.38	2.792
33.6	141.166
33.82	21.081
34.04	60.68
34.26	201.475
34.48	17.942
34.7	8.844
34.92	21.575
35.14	17.736
35.36	1.561
35.58	2.978
35.8	0.344
36.02	11.401
36.24	0.396
36.46	5.981
36.68	1.452
36.9	168.566
37.12	30.126
37.34	11.606
37.56	59.376
37.78	5.25
38	2.387
38.22	4.537
38.44	6.675
38.66	1.888
38.88	10.926
39.1	10.968
39.32	1.829
39.54	24.576
39.76	1.884
39.98	139.649
40.2	13.612
40.42	3.407
40.64	6.34
40.86	1.698
41.08	86.585
41.3	7.495
41.52	4.428
41.74	9.387
41.96	7.682
42.18	3.636
42.4	38.682
42.62	185.821
42.84	3.429
43.06	5.538
43.28	5.526
43.5	2.983
43.72	5.337
43.94	2.112
44.16	12.11
44.38	3.296
44.6	2.506
44.82	2.832
45.04	2.915
45.26	14.499
45.48	4.69
45.7	5.597
45.92	7.639
46.14	11.716
46.36	26.512
46.58	5.511
46.8	1.529
47.02	7.326
47.24	5.221
47.46	1.379
47.68	4.615
47.9	4.815
48.12	7.916
48.34	43.985
48.56	1.054
48.78	6.169
49	8.296
49.22	2.494
49.44	2.59
49.66	2.639
49.88	3.664
50.1	4.481
50.32	11.086
50.54	9.45
50.76	0.452
50.98	5.081
51.2	4.896
51.42	6.671
51.64	2.339
51.86	2.348
52.08	24.085
52.3	32.754
52.52	16.762
52.74	4.845
52.96	11.414
53.18	11.044
53.4	9.061
53.62	2.162
53.84	0.806
54.06	28.408
54.28	6.68
54.5	3.5
54.72	9.347
54.94	9.324
55.16	4.967
55.38	3.044
55.6	2.931
55.82	45.856
56.04	47.915
56.26	18.176
56.48	44.177
56.7	77.639
56.92	24.737
57.14	4.929
57.36	0.013
57.58	1.985
57.8	10.979
58.02	2.568
58.24	2.558
58.46	9.315
58.68	1.049
58.9	1.955
59.12	2.985
59.34	6.393
59.56	77.741
59.78	83.07
60	15.434
60.22	7.747
60.44	3.568
60.66	9.84
60.88	10.085
61.1	4.435
61.32	2.703
61.54	5.176
61.76	5.032
61.98	11.224
62.2	9.116
62.42	0.93
62.64	4.729
62.86	3.576
63.08	8.663
63.3	4.802
63.52	20.613
63.74	23.499
63.96	11.196
64.18	11.131
64.4	5.795
64.62	14.818
64.84	3.855
65.06	2.933
65.28	9.179
65.5	3.362
65.72	8.535
65.94	6.654
66.16	0.27
66.38	4.597
66.6	4.631
66.82	1.618
67.04	6.724
67.26	34.765
67.48	37.618
67.7	2.622
67.92	6.16
68.14	5.992
68.36	2.783
68.58	2.041
68.8	2.504
69.02	22.5
69.24	23.659
69.46	5.509
69.68	3.485
69.9	5.527
70.12	4.581
70.34	8.152
70.56	14.075
70.78	13.01
71	2.694
71.22	8.199
71.44	0.017
71.66	0.862
71.88	9.949
72.1	17.336
72.32	23.427
72.54	12.647
72.76	11.535
72.98	0.401
73.2	3.329
73.42	11.679
73.64	9.787
73.86	12.164
74.08	17.649
74.3	10.655
74.52	6.227
74.74	5.214
74.96	0.401
75.18	1.46
75.4	4.912
75.62	12.319
75.84	17.53
76.06	11.699
76.28	7.676
76.5	8.598
76.72	2.315
76.94	5.644
77.16	2.77
77.38	8.701
77.6	5.621
77.82	10.239
78.04	2.774
78.26	2.834
78.48	22.045
78.7	4.811
78.92	12.495
79.14	6.357
79.36	4.317
79.58	3.512
79.8	6.696
80.02	19.871
80.24	11.907
80.46	7.059
80.68	0.092
80.9	0.669
81.12	2.326
81.34	19.676
81.56	7.007
81.78	6.11
82	13.958
82.22	8.873
82.44	6.687
82.66	0.678
82.88	0.543
83.1	0.414
83.32	10.39
83.54	3.41
83.76	30.489
83.98	17.304
84.2	11.24
84.42	10.805
84.64	6.87
84.86	0.874
85.08	0.409
85.3	3.706
85.52	2.718
85.74	3.788
85.96	1.223
86.18	6.669
86.4	1.506
86.62	4.336
86.84	6.631
87.06	0.634
87.28	2.468
87.5	3.299
87.72	13.183
87.94	18.019
88.16	1.051
88.38	3.983
88.6	2.69
88.82	2.352
89.04	46.296
89.26	21.921
89.48	5.08
89.7	7.384
89.92	6.499
