Measurement: Powder, Xray Data XY Processed
Mineral: Lazulite
Rruff sample: R060494
Ideal chemistry: MgAl_2_(PO_4_)_2_(OH)_2_
Locality: Champion mine, White Mountains, Mono County, California, USA
Source: Michael Scott
Description: Dark-blue coarsely crystalline mass
Diffraction sample description: Powder
Measured chemistry: (Mg_0.67_Fe^2+^_0.33_)_Î£=1_Al_2.00_(P_1.00_O_4_)_2_(OH)_2_
Cell parameters: a: 7.1484(3) b: 7.2841(3) c: 7.2349(4) alpha: 90. beta: 120.530(4) gamma: 90. volume: 324.50(2) crystal system: monoclinic
x	intensity
5	0
5.22	12.9449
5.44	20.7809
5.66	9.85456
5.88	17.4226
6.1	16.9372
6.32	8.27033
6.54	19.2965
6.76	5.07421
6.98	0.325573
7.2	8.73721
7.42	13.9384
7.64	4.67666
7.86	1.21496
8.08	10.811
8.3	3.17784
8.52	7.62019
8.74	7.25512
8.96	15.0551
9.18	9.53286
9.4	8.61636
9.62	2.2173
9.84	0.083086
10.06	21.4644
10.28	4.96462
10.5	2.55963
10.72	3.45346
10.94	8.86911
11.16	9.17598
11.38	9.30997
11.6	12.5631
11.82	21.6791
12.04	24.4708
12.26	10.6029
12.48	3.78988
12.7	16.3109
12.92	0.374052
13.14	19.3365
13.36	3.06854
13.58	10.8559
13.8	12.754
14.02	9.22252
14.24	12.7667
14.46	57.0524
14.68	5.89374
14.9	4.5327
15.12	6.29866
15.34	3.33461
15.56	0.466774
15.78	0.956465
16	3.60407
16.22	4.85325
16.44	16.556
16.66	10.7236
16.88	4.55508
17.1	12.5743
17.32	3.08723
17.54	14.116
17.76	4.01164
17.98	23.2653
18.2	1.65068
18.42	13.4278
18.64	17.563
18.86	50.4336
19.08	10.4948
19.3	4.90434
19.52	9.38435
19.74	0.452681
19.96	3.92417
20.18	9.04412
20.4	0.163027
20.62	6.99325
20.84	10.115
21.06	13.2486
21.28	15.4483
21.5	3.39441
21.72	10.4723
21.94	8.68718
22.16	0.03896
22.38	1.6376
22.6	12.9223
22.82	6.96613
23.04	5.00381
23.26	10.8774
23.48	6.58097
23.7	6.19595
23.92	1.12271
24.14	1.8635
24.36	1.38466
24.58	14.1762
24.8	7.16597
25.02	3.79052
25.24	5.1233
25.46	2.10691
25.68	10.9003
25.9	12.0623
26.12	4.15666
26.34	5.59274
26.56	1.62034
26.78	2.40471
27	14.2065
27.22	1.9275
27.44	40.0849
27.66	91.6664
27.88	529.676
28.1	14.1454
28.32	33.1449
28.54	51.9659
28.76	7.3653
28.98	129.998
29.2	16.1079
29.42	11.7528
29.64	3.74376
29.86	0.110954
30.08	14.7701
30.3	8.94653
30.52	11.7606
30.74	20.5632
30.96	5.10112
31.18	4.21052
31.4	7.42135
31.62	13.1877
31.84	7.20983
32.06	13.2263
32.28	12.8666
32.5	13.3735
32.72	19.0674
32.94	10.0477
33.16	10.7854
33.38	7.00243
33.6	12.3971
33.82	13.3222
34.04	20.3097
34.26	9.59287
34.48	12.7633
34.7	1.04643
34.92	16.7705
35.14	51.8414
35.36	12.8048
35.58	6.15689
35.8	4.93095
36.02	15.608
36.24	19.8629
36.46	4.07845
36.68	16.1105
36.9	2.04007
37.12	4.83026
37.34	12.7952
37.56	11.0297
37.78	4.98443
38	4.37519
38.22	14.4281
38.44	16.5901
38.66	10.3393
38.88	13.0214
39.1	7.89138
39.32	0.400009
39.54	0.401276
39.76	17.3315
39.98	44.1521
40.2	20.1086
40.42	0.834648
40.64	39.6227
40.86	15.871
41.08	0.93685
41.3	3.66123
41.52	3.15634
41.74	4.46751
41.96	5.88575
42.18	8.26853
42.4	5.19655
42.62	5.16845
42.84	2.96296
43.06	5.47567
43.28	10.5087
43.5	5.04192
43.72	24.232
43.94	9.36072
44.16	11.6748
44.38	3.89043
44.6	1.09965
44.82	8.25329
45.04	20.5579
45.26	42.1729
45.48	13.0895
45.7	59.7498
45.92	101.407
46.14	14.4915
46.36	12.4919
46.58	15.7939
46.8	9.48691
47.02	2.31051
47.24	9.25832
47.46	5.98408
47.68	11.7038
47.9	14.2358
48.12	4.34943
48.34	13.3416
48.56	13.8595
48.78	14.652
49	12.7825
49.22	7.48029
49.44	13.1292
49.66	18.6203
49.88	6.30138
50.1	24.8182
50.32	15.7175
50.54	24.925
50.76	8.8495
50.98	7.4554
51.2	18.2751
51.42	6.40932
51.64	2.55888
51.86	2.17247
52.08	12.9477
52.3	7.72423
52.52	9.12268
52.74	18.4309
52.96	15.3389
53.18	17.0302
53.4	3.04402
53.62	16.9382
53.84	9.8451
54.06	9.73682
54.28	1.49214
54.5	19.3416
54.72	15.0684
54.94	0.098011
55.16	23.1147
55.38	9.24412
55.6	13.3361
55.82	3.34989
56.04	13.6512
56.26	8.57937
56.48	6.37021
56.7	12.3259
56.92	19.622
57.14	5.92657
57.36	2.2442
57.58	17.0889
57.8	6.87371
58.02	0.766983
58.24	2.62405
58.46	15.9088
58.68	84.5672
58.9	93.4312
59.12	19.2206
59.34	31.6823
59.56	7.21424
59.78	7.90859
60	16.8894
60.22	46.857
60.44	4.14562
60.66	10.6803
60.88	11.4466
61.1	0.102592
61.32	9.69454
61.54	1.18287
61.76	3.21732
61.98	5.53424
62.2	7.61759
62.42	8.60862
62.64	20.4447
62.86	11.3235
63.08	10.8512
63.3	2.27086
63.52	5.65238
63.74	13.5403
63.96	6.41059
64.18	4.11661
64.4	19.558
64.62	17.4349
64.84	13.3463
65.06	3.0775
65.28	1.66279
65.5	0.084631
65.72	0.137682
65.94	9.64666
66.16	19.5542
66.38	23.4415
66.6	12.3029
66.82	2.1356
67.04	0.334251
67.26	29.6186
67.48	12.0883
67.7	9.22664
67.92	3.16079
68.14	1.60942
68.36	1.39688
68.58	2.63483
68.8	13.6349
69.02	0.746561
69.24	15.4423
69.46	22.1165
69.68	21.8438
69.9	2.85672
70.12	6.93716
70.34	10.849
70.56	22.769
70.78	0.929928
71	5.18853
71.22	16.3478
71.44	21.5474
71.66	7.36435
71.88	9.50249
72.1	0.246738
72.32	6.89274
72.54	7.01563
72.76	6.66043
72.98	19.5354
73.2	13.4808
73.42	2.00766
73.64	9.8263
73.86	12.7905
74.08	21.8254
74.3	54.6199
74.52	42.1541
74.74	13.1275
74.96	1.62209
75.18	11.7409
75.4	14.2135
75.62	16.3193
75.84	0.125601
76.06	9.23658
76.28	10.4076
76.5	3.38225
76.72	11.7001
76.94	1.71995
77.16	5.64587
77.38	8.64874
77.6	17.7834
77.82	4.61865
78.04	16.5791
78.26	7.33525
78.48	11.0874
78.7	8.05914
78.92	8.28293
79.14	0.470589
79.36	3.15693
79.58	11.9505
79.8	1.41086
80.02	14.0605
80.24	8.82365
80.46	18.4568
80.68	10.2795
80.9	18.037
81.12	15.324
81.34	11.3842
81.56	14.2419
81.78	18.5502
82	0.890453
82.22	14.2291
82.44	3.61009
82.66	10.8903
82.88	14.2109
83.1	10.8287
83.32	5.29837
83.54	14.6123
83.76	3.90714
83.98	3.55954
84.2	6.98978
84.42	13.1377
84.64	10.9827
84.86	8.88365
85.08	14.8902
85.3	14.8214
85.52	7.32103
85.74	1.05527
85.96	8.67966
86.18	1.97384
86.4	4.6442
86.62	16.2001
86.84	14.0963
87.06	17.9637
87.28	1.14735
87.5	22.5193
87.72	22.9669
87.94	3.13958
88.16	2.07402
88.38	3.38052
88.6	1.68993
88.82	9.66482
89.04	18.2654
89.26	11.1251
89.48	18.9465
89.7	13.9638
89.92	9.19469
