Measurement: Powder, Xray Data XY Processed
Mineral: Leifite
Rruff sample: R060219
Ideal chemistry: Na_7_Be_2_(Si_15_Al_3_)O_39_(F,OH)_2_
Locality: Mont Saint-Hilaire, Rouville County, Quebec, Canada
Source: Royal Ontario Museum
Description: Colorless hexagonal prism
Diffraction sample description: Powder
Cell parameters: a: 14.3844(4) b: 14.3844(4) c: 4.8721(4) alpha: 90. beta: 90. gamma: 120. volume: 873.03(5) crystal system: hexagonal
x	intensity
5	0
5.22	2.205
5.44	9.09
5.66	12.064
5.88	15.487
6.1	12.263
6.32	19.03
6.54	1.276
6.76	12.417
6.98	17.537
7.2	25.153
7.42	15.369
7.64	6.889
7.86	8.04
8.08	11.994
8.3	3.928
8.52	4.701
8.74	5.434
8.96	8.539
9.18	9.906
9.4	1.51
9.62	4.329
9.84	2.731
10.06	1.932
10.28	5.405
10.5	2.3
10.72	6.911
10.94	0.42
11.16	3.366
11.38	7.737
11.6	2.758
11.82	2.548
12.04	2.589
12.26	12.488
12.48	10.197
12.7	11.087
12.92	4.247
13.14	4.232
13.36	6.811
13.58	1.846
13.8	5.922
14.02	7.319
14.24	110.351
14.46	6.611
14.68	14.81
14.9	10.895
15.12	6.886
15.34	1.73
15.56	12.977
15.78	3.195
16	3.186
16.22	2.177
16.44	4.76
16.66	1.582
16.88	6.897
17.1	1.616
17.32	6.376
17.54	1.036
17.76	0.789
17.98	3.729
18.2	0.001
18.42	5.801
18.64	9.596
18.86	282.547
19.08	16.587
19.3	1.337
19.52	19.684
19.74	15.845
19.96	12.023
20.18	5.271
20.4	4.276
20.62	7.362
20.84	2.575
21.06	2.644
21.28	10.58
21.5	83.743
21.72	8.674
21.94	8.257
22.16	2.272
22.38	0.293
22.6	2.153
22.82	1.619
23.04	9.532
23.26	35.787
23.48	8.021
23.7	12.81
23.92	2.447
24.14	1.773
24.36	4.077
24.58	0.436
24.8	96.062
25.02	3.734
25.24	0.094
25.46	20.359
25.68	15.082
25.9	41.684
26.12	14.578
26.34	500.169
26.56	25.296
26.78	3.178
27	4.064
27.22	3.984
27.44	5.843
27.66	2.807
27.88	8.829
28.1	23.774
28.32	476.691
28.54	21.793
28.76	77.751
28.98	1.54
29.2	3.069
29.42	10.385
29.64	6.709
29.86	1.898
30.08	1.413
30.3	0.35
30.52	12.612
30.74	0.333
30.96	12.788
31.18	0.11
31.4	9.744
31.62	2.046
31.84	29.098
32.06	12.103
32.28	4.164
32.5	7.438
32.72	6.528
32.94	19.511
33.16	6.488
33.38	6.552
33.6	1.428
33.82	2.311
34.04	6.926
34.26	31.938
34.48	1.794
34.7	5.142
34.92	3.013
35.14	13.822
35.36	4.677
35.58	0.516
35.8	1.943
36.02	3.065
36.24	3.817
36.46	177.569
36.68	10.371
36.9	17.326
37.12	0.94
37.34	2.009
37.56	95.352
37.78	9.904
38	34.274
38.22	18.41
38.44	6.428
38.66	12.528
38.88	9.623
39.1	5.151
39.32	4.145
39.54	1.009
39.76	0.535
39.98	2.367
40.2	4.181
40.42	5.207
40.64	80.018
40.86	22.705
41.08	6.568
41.3	4.86
41.52	7.295
41.74	13.186
41.96	27.128
42.18	17.126
42.4	10.895
42.62	44.865
42.84	17.067
43.06	21.404
43.28	6.631
43.5	18.982
43.72	2.015
43.94	6.402
44.16	4.805
44.38	4.052
44.6	5.294
44.82	1.526
45.04	0.497
45.26	5.599
45.48	10.759
45.7	13.877
45.92	5.908
46.14	8.87
46.36	0.714
46.58	0.438
46.8	2.513
47.02	6.534
47.24	8.52
47.46	10.423
47.68	35.535
47.9	9.308
48.12	9.234
48.34	14.526
48.56	4.505
48.78	3.812
49	0.89
49.22	10.935
49.44	8.861
49.66	4.721
49.88	4.46
50.1	3.533
50.32	11.361
50.54	5.815
50.76	42.785
50.98	11.84
51.2	0.574
51.42	3.189
51.64	17.985
51.86	10.104
52.08	1.886
52.3	11.946
52.52	76.902
52.74	33.263
52.96	2.381
53.18	0.534
53.4	2.522
53.62	7.75
53.84	0.191
54.06	4.406
54.28	16.21
54.5	9.566
54.72	3.72
54.94	10.422
55.16	4.432
55.38	8.372
55.6	1.305
55.82	10.122
56.04	8.15
56.26	5.683
56.48	24.329
56.7	8.3
56.92	5.384
57.14	5.074
57.36	1.731
57.58	5.492
57.8	6.139
58.02	7.037
58.24	5.964
58.46	24.896
58.68	3.18
58.9	16.296
59.12	7.595
59.34	13.503
59.56	5.217
59.78	6.424
60	14.561
60.22	5.694
60.44	5.722
60.66	2.906
60.88	1.762
61.1	24.567
61.32	17.659
61.54	0.52
61.76	3.427
61.98	10.277
62.2	25.5
62.42	5.05
62.64	5.387
62.86	4.793
63.08	2.098
63.3	0.221
63.52	3.43
63.74	4.519
63.96	5.596
64.18	2.572
64.4	4.364
64.62	15.523
64.84	17.278
65.06	5.977
65.28	0.15
65.5	11.534
65.72	4.417
65.94	3.142
66.16	1.883
66.38	4.987
66.6	0.264
66.82	9.46
67.04	6.913
67.26	1.697
67.48	8.691
67.7	17.815
67.92	6.888
68.14	5.175
68.36	11.893
68.58	3.05
68.8	1.13
69.02	4.065
69.24	6.275
69.46	3.399
69.68	0.441
69.9	23.455
70.12	8.899
70.34	2.871
70.56	19.627
70.78	3.341
71	8.633
71.22	8.89
71.44	29.041
71.66	22.465
71.88	12.536
72.1	6.638
72.32	2.399
72.54	5.023
72.76	0.826
72.98	5.278
73.2	7.361
73.42	7.252
73.64	3.358
73.86	1.454
74.08	4.112
74.3	4.144
74.52	4.205
74.74	4.477
74.96	5.504
75.18	3.404
75.4	6.556
75.62	5.981
75.84	8.92
76.06	3.637
76.28	4.465
76.5	0.366
76.72	0.754
76.94	2.863
77.16	5.564
77.38	4.422
77.6	3.292
77.82	15.164
78.04	13.497
78.26	1.304
78.48	6.108
78.7	1.898
78.92	4.782
79.14	0.261
79.36	5.973
79.58	11.217
79.8	11.213
80.02	18.57
80.24	10.738
80.46	3.994
80.68	3.319
80.9	0.102
81.12	13.508
81.34	2.834
81.56	2.105
81.78	1.252
82	11.212
82.22	6.216
82.44	6.96
82.66	6.69
82.88	9.747
83.1	3.613
83.32	8.51
83.54	2.162
83.76	7.148
83.98	10.262
84.2	9.104
84.42	7.087
84.64	4.068
84.86	10.061
85.08	1.266
85.3	12.331
85.52	6.337
85.74	4.048
85.96	1.903
86.18	2.755
86.4	0.894
86.62	7.186
86.84	13.225
87.06	9.304
87.28	6.547
87.5	4.243
87.72	8.562
87.94	10.607
88.16	5.751
88.38	9.761
88.6	6.66
88.82	5.243
89.04	12.07
89.26	0.874
89.48	10.229
89.7	2.616
89.92	4.539
