Measurement: Powder, Xray Data XY Processed
Mineral: Leightonite
Rruff sample: R050211
Ideal chemistry: K_2_Ca_2_Cu^2+^(S^6+^O_4_)_4_2H_2_O
Locality: Chuquicamata mine, Calama, Antofagasta Province, Chile
Source: John Dagenais
Description: Blue lathlike crystals
Diffraction sample description: Powder
Measured chemistry: (K_1.91_Na_0.09_)_Σ=2_Ca_2.00_Cu_1.00_(S_1.00_O_4_)_4_·1.96H_2_O
Cell parameters: a: 11.657(1) b: 7.4968(4) c: 10.065(1) alpha: 90 beta: 124.97(1) gamma: 90 volume: 720.7(0) crystal system: monoclinic
x	intensity
5	0
5.22	6.74687
5.44	11.7757
5.66	0.217459
5.88	10.6822
6.1	10.9003
6.32	14.4058
6.54	16.3023
6.76	23.0675
6.98	9.5419
7.2	20.3214
7.42	9.99111
7.64	0.675068
7.86	1.71633
8.08	4.81729
8.3	11.5429
8.52	6.16798
8.74	7.54263
8.96	10.4408
9.18	11.4802
9.4	4.73177
9.62	2.46723
9.84	0.613123
10.06	0.146278
10.28	9.11869
10.5	7.07503
10.72	13.2016
10.94	5.98967
11.16	1.0176
11.38	10.0006
11.6	1.32953
11.82	3.24335
12.04	3.42161
12.26	18.5191
12.48	5.9649
12.7	14.7427
12.92	10.8432
13.14	7.66938
13.36	5.68296
13.58	5.3839
13.8	3.87325
14.02	4.53086
14.24	0.314114
14.46	10.3112
14.68	6.2256
14.9	8.51599
15.12	11.6427
15.34	12.5756
15.56	5.04225
15.78	1.64543
16	9.50231
16.22	1.80118
16.44	3.02274
16.66	0.65262
16.88	7.86081
17.1	7.18709
17.32	11.1762
17.54	10.1389
17.76	10.2941
17.98	14.4777
18.2	0.855444
18.42	3.09609
18.64	22.1306
18.86	4.19021
19.08	3.44652
19.3	4.83692
19.52	9.06841
19.74	0.125292
19.96	0.620022
20.18	13.6055
20.4	1.33862
20.62	8.47687
20.84	7.55375
21.06	9.88363
21.28	0.934951
21.5	18.0563
21.72	15.7307
21.94	1.72827
22.16	11.2466
22.38	4.12559
22.6	12.209
22.82	7.333
23.04	5.24003
23.26	5.21045
23.48	23.7535
23.7	1.20688
23.92	10.0746
24.14	4.40295
24.36	0.711737
24.58	9.29621
24.8	8.36438
25.02	8.78515
25.24	14.3693
25.46	7.07063
25.68	11.6996
25.9	4.63245
26.12	43.2105
26.34	62.9376
26.56	12.2311
26.78	0.205729
27	6.98442
27.22	7.25303
27.44	4.94906
27.66	10.8521
27.88	9.17758
28.1	1.9524
28.32	563.061
28.54	15.0989
28.76	11.0176
28.98	4.77344
29.2	11.4796
29.42	4.14367
29.64	3.10681
29.86	15.6
30.08	4.43782
30.3	26.1046
30.52	223.962
30.74	174.423
30.96	7.05367
31.18	9.00518
31.4	9.13773
31.62	6.69843
31.84	8.11199
32.06	0.89749
32.28	21.4538
32.5	7.90191
32.72	14.4551
32.94	2.98219
33.16	9.71665
33.38	0.041594
33.6	4.38483
33.82	0.807384
34.04	17.532
34.26	9.61278
34.48	11.671
34.7	2.60756
34.92	11.1637
35.14	7.96465
35.36	8.25598
35.58	6.12528
35.8	35.0877
36.02	19.8448
36.24	14.0133
36.46	12.7894
36.68	6.66096
36.9	8.23519
37.12	2.29956
37.34	13.6495
37.56	11.8761
37.78	24.5161
38	9.55687
38.22	8.48566
38.44	11.8707
38.66	8.0291
38.88	2.23022
39.1	10.8506
39.32	8.21713
39.54	6.17468
39.76	4.84384
39.98	3.64201
40.2	1.43127
40.42	19.3945
40.64	32.2838
40.86	26.2096
41.08	10.1815
41.3	14.559
41.52	3.6319
41.74	11.5511
41.96	1.66961
42.18	11.8328
42.4	9.07725
42.62	5.3693
42.84	13.4709
43.06	7.44837
43.28	20.4944
43.5	1.38171
43.72	7.72662
43.94	12.8472
44.16	5.83791
44.38	9.82304
44.6	12.6707
44.82	9.39303
45.04	10.0716
45.26	10.9473
45.48	10.838
45.7	13.8538
45.92	0.672112
46.14	28.1019
46.36	41.4752
46.58	17.4615
46.8	8.01935
47.02	7.09275
47.24	10.232
47.46	7.21282
47.68	7.14066
47.9	4.07881
48.12	13.7197
48.34	8.67642
48.56	19.1139
48.78	6.73547
49	2.07033
49.22	10.2166
49.44	10.8537
49.66	12.191
49.88	0.413837
50.1	0.964035
50.32	12.2181
50.54	3.41826
50.76	8.53222
50.98	7.60248
51.2	12.1321
51.42	27.9106
51.64	24.5133
51.86	11.1621
52.08	11.8078
52.3	3.8024
52.52	0.357958
52.74	4.21479
52.96	0.263115
53.18	23.2491
53.4	9.28541
53.62	15.8468
53.84	21.1066
54.06	0.176662
54.28	3.61988
54.5	6.93235
54.72	8.18104
54.94	5.79679
55.16	11.284
55.38	7.3698
55.6	3.57904
55.82	7.71645
56.04	5.67514
56.26	10.4756
56.48	2.30082
56.7	5.99289
56.92	5.20386
57.14	12.0252
57.36	4.62732
57.58	5.35685
57.8	0.66958
58.02	4.68879
58.24	12.7263
58.46	14.8255
58.68	2.17203
58.9	0.984976
59.12	3.06878
59.34	6.99787
59.56	0.133542
59.78	7.01676
60	4.14111
60.22	0.680318
60.44	2.08534
60.66	1.22303
60.88	3.41085
61.1	5.39648
61.32	19.0386
61.54	26.026
61.76	1.17287
61.98	16.5819
62.2	12.6422
62.42	6.60982
62.64	7.46642
62.86	7.32428
63.08	0.158131
63.3	9.31197
63.52	11.0183
63.74	15.5713
63.96	11.628
64.18	20.8779
64.4	3.31475
64.62	12.7805
64.84	4.26436
65.06	12.5896
65.28	8.06866
65.5	4.51677
65.72	10.4923
65.94	16.7814
66.16	14.0506
66.38	8.05541
66.6	2.55238
66.82	14.4608
67.04	1.95781
67.26	6.86229
67.48	15.6117
67.7	6.73647
67.92	3.40229
68.14	5.12679
68.36	11.6028
68.58	1.35266
68.8	13.9552
69.02	6.67934
69.24	15.5556
69.46	4.40097
69.68	7.09748
69.9	12.0847
70.12	9.02776
70.34	7.00574
70.56	8.59662
70.78	5.91792
71	6.16974
71.22	8.83019
71.44	10.2229
71.66	8.4246
71.88	9.87921
72.1	7.03946
72.32	10.2118
72.54	0.011136
72.76	2.18471
72.98	7.81002
73.2	10.6358
73.42	0.518579
73.64	3.60005
73.86	13.5207
74.08	11.472
74.3	5.24762
74.52	2.26478
74.74	0.739336
74.96	7.43202
75.18	7.51204
75.4	10.5214
75.62	10.7436
75.84	12.7839
76.06	6.94354
76.28	9.019
76.5	5.05634
76.72	11.9684
76.94	4.17444
77.16	8.64188
77.38	7.06621
77.6	2.8217
77.82	3.57417
78.04	5.17948
78.26	13.9569
78.48	7.47038
78.7	6.40583
78.92	0.359453
79.14	9.41252
79.36	5.50027
79.58	6.73337
79.8	0.902716
80.02	9.12652
80.24	3.51066
80.46	13.1008
80.68	5.09526
80.9	8.32498
81.12	5.65961
81.34	8.84165
81.56	9.45602
81.78	20.8718
82	16.9407
82.22	10.2377
82.44	12.3346
82.66	10.4477
82.88	1.15362
83.1	15.1402
83.32	10.1112
83.54	0.838726
83.76	9.72923
83.98	8.66674
84.2	8.38755
84.42	1.43398
84.64	7.23133
84.86	9.18582
85.08	9.6709
85.3	4.64227
85.52	4.59042
85.74	11.5901
85.96	5.80418
86.18	16.0542
86.4	3.47629
86.62	7.28534
86.84	9.04527
87.06	6.66046
87.28	12.1631
87.5	6.99797
87.72	15.8773
87.94	13.8254
88.16	4.87616
88.38	10.6789
88.6	4.59572
88.82	7.01792
89.04	10.3748
89.26	7.61445
89.48	4.34535
89.7	2.15287
89.92	0.851867
