Measurement: Powder, Xray Data XY Processed
Mineral: Leucite
Rruff sample: R040107
Ideal chemistry: K(Si_2_Al)O_6_
Locality: Roccamonfina, Italy
Source: University of Arizona Mineral Museum
Description: Rounded colorless crystals embedded in an ash matrix
Diffraction sample description: Powder
Measured chemistry: (K_0.95_Na_0.03_)Al_0.99_Si_2.01_O_6_
Cell parameters: a: 13.0686(4) b: 13.0686(4) c: 13.7580(3) alpha: 90. beta: 90. gamma: 90. volume: 2349.7(1) crystal system: tetragonal
x	intensity
5	0
5.22	5.627
5.44	5.954
5.66	4.407
5.88	9.44
6.1	6.135
6.32	7.379
6.54	5.338
6.76	8.158
6.98	14.065
7.2	10.3
7.42	0.465
7.64	14.077
7.86	8.138
8.08	5.834
8.3	8.434
8.52	6.073
8.74	3.349
8.96	9.501
9.18	6.57
9.4	49.742
9.62	1.323
9.84	7.26
10.06	9.315
10.28	13.046
10.5	0.147
10.72	9.405
10.94	8.313
11.16	1.232
11.38	5.643
11.6	1.877
11.82	2.021
12.04	9.145
12.26	0.715
12.48	5.37
12.7	4.512
12.92	5.754
13.14	10.792
13.36	2.928
13.58	33.155
13.8	3.817
14.02	6.82
14.24	8.238
14.46	6.045
14.68	4.9
14.9	12.818
15.12	0.348
15.34	2.117
15.56	0.174
15.78	10.666
16	21.571
16.22	16.66
16.44	75.514
16.66	23.126
16.88	8.357
17.1	6.438
17.32	6.616
17.54	1.254
17.76	8.986
17.98	7.187
18.2	7.207
18.42	4.232
18.64	7.196
18.86	14.809
19.08	7.911
19.3	6.885
19.52	13.993
19.74	7.096
19.96	7.227
20.18	0.175
20.4	1.293
20.62	12.335
20.84	5.436
21.06	0.457
21.28	6.221
21.5	11.205
21.72	0.571
21.94	9.66
22.16	1.635
22.38	8.555
22.6	5.041
22.82	10.095
23.04	7.154
23.26	4.942
23.48	12.485
23.7	12.886
23.92	2.421
24.14	2.578
24.36	5.674
24.58	13.85
24.8	25.14
25.02	5.936
25.24	37.171
25.46	84.901
25.68	8.814
25.9	396.484
26.12	24.315
26.34	8.059
26.56	6.152
26.78	3.461
27	6.155
27.22	69.312
27.44	143.614
27.66	12.022
27.88	11.603
28.1	3.246
28.32	17.893
28.54	1.416
28.76	12.945
28.98	21.315
29.2	7.917
29.42	25.466
29.64	4.423
29.86	3.062
30.08	1.183
30.3	25.697
30.52	44.659
30.74	66.756
30.96	4.469
31.18	10.335
31.4	45.401
31.62	55.128
31.84	186.642
32.06	11.425
32.28	10.982
32.5	3.295
32.72	0.733
32.94	6.038
33.16	5.299
33.38	6.487
33.6	7.598
33.82	11.993
34.04	38.012
34.26	8.133
34.48	16.062
34.7	4.387
34.92	4.523
35.14	2.649
35.36	10.817
35.58	1.633
35.8	6.666
36.02	9.642
36.24	17.73
36.46	11.352
36.68	6.2
36.9	5.577
37.12	12.227
37.34	6.96
37.56	13.788
37.78	23.338
38	190.645
38.22	12.072
38.44	0.799
38.66	12.568
38.88	0.55
39.1	29.622
39.32	7.275
39.54	1.965
39.76	5.317
39.98	2.475
40.2	2.796
40.42	6.592
40.64	5.776
40.86	5.847
41.08	3.945
41.3	13.98
41.52	10.78
41.74	35.488
41.96	12.271
42.18	15.385
42.4	56.294
42.62	27.236
42.84	2.75
43.06	5.787
43.28	0.086
43.5	4.266
43.72	3.579
43.94	20.691
44.16	8.79
44.38	0.642
44.6	0.322
44.82	0.771
45.04	6.245
45.26	10.518
45.48	3.433
45.7	0.27
45.92	14.256
46.14	4.976
46.36	0.866
46.58	2.724
46.8	12.731
47.02	0.614
47.24	12.618
47.46	10.031
47.68	7.631
47.9	7.493
48.12	3.483
48.34	4.29
48.56	12.12
48.78	18.324
49	22.201
49.22	8.912
49.44	2.714
49.66	13.306
49.88	5.273
50.1	8.239
50.32	15.253
50.54	9.089
50.76	4.437
50.98	14.864
51.2	20.834
51.42	4.392
51.64	7.666
51.86	7.835
52.08	0.054
52.3	4.261
52.52	2.465
52.74	2.689
52.96	40.016
53.18	20.645
53.4	16.077
53.62	6.258
53.84	5.946
54.06	4.073
54.28	5.144
54.5	7.539
54.72	4.214
54.94	40.216
55.16	83.112
55.38	29.74
55.6	3.677
55.82	2.278
56.04	0.071
56.26	9.809
56.48	36.574
56.7	18.619
56.92	1.018
57.14	6.396
57.36	4.692
57.58	5.737
57.8	3.827
58.02	2.113
58.24	30.607
58.46	6.053
58.68	10.336
58.9	11.662
59.12	4.607
59.34	1.246
59.56	2.809
59.78	1.477
60	10.444
60.22	13.859
60.44	14.674
60.66	18.132
60.88	9.731
61.1	0.986
61.32	0.913
61.54	3.093
61.76	10.158
61.98	6.342
62.2	6.555
62.42	4.985
62.64	25.755
62.86	24.247
63.08	10.535
63.3	6.572
63.52	2.578
63.74	11.255
63.96	7.421
64.18	11.467
64.4	5.517
64.62	9.395
64.84	5.274
65.06	4.2
65.28	6.795
65.5	1.922
65.72	1.026
65.94	10.246
66.16	9.485
66.38	12.304
66.6	6.359
66.82	3.25
67.04	3.112
67.26	5.037
67.48	10.082
67.7	17.571
67.92	10.274
68.14	9.043
68.36	10.729
68.58	0.401
68.8	5.419
69.02	27.334
69.24	9.271
69.46	5.604
69.68	11.558
69.9	14.272
70.12	8.629
70.34	2.593
70.56	9.547
70.78	12.019
71	10.195
71.22	9.014
71.44	6.924
71.66	4.99
71.88	3.574
72.1	7.517
72.32	20.616
72.54	8.86
72.76	8.087
72.98	15.208
73.2	10.472
73.42	4.693
73.64	9.205
73.86	2.504
74.08	0.47
74.3	16.69
74.52	8.814
74.74	7.785
74.96	3.614
75.18	1.526
75.4	5.45
75.62	1.616
75.84	0.86
76.06	26.832
76.28	17.795
76.5	7.738
76.72	9.251
76.94	1.641
77.16	6.375
77.38	12.532
77.6	3.532
77.82	1.514
78.04	2.448
78.26	5.096
78.48	1.597
78.7	12.501
78.92	9.145
79.14	7.85
79.36	4.955
79.58	8.183
79.8	9.399
80.02	5.565
80.24	3.981
80.46	3.154
80.68	0.373
80.9	6.845
81.12	2.028
81.34	1.829
81.56	9.408
81.78	8.27
82	6.363
82.22	9.19
82.44	10.219
82.66	5.074
82.88	10.931
83.1	5.817
83.32	11.829
83.54	3.859
83.76	1.268
83.98	2.209
84.2	3.449
84.42	0.597
84.64	10.571
84.86	8.497
85.08	3.54
85.3	4.414
85.52	1.556
85.74	6.592
85.96	11.77
86.18	12.68
86.4	0.942
86.62	1.829
86.84	11.875
87.06	0.982
87.28	8.111
87.5	1.208
87.72	13.344
87.94	6.454
88.16	5.569
88.38	1.734
88.6	9.619
88.82	3.484
89.04	10.496
89.26	1.669
89.48	3.942
89.7	4.75
89.92	1.244
