Measurement: Powder, Xray Data XY Processed
Mineral: Leucite
Rruff sample: R060300
Ideal chemistry: K(Si_2_Al)O_6_
Locality: Alban Hills, Rome Province, Latium, Italy
Source: Herb Obodda
Description: Colorless complete pseudocubic crystal showing trapezohedral faces
Diffraction sample description: Powder
Measured chemistry: (K_0.98_Na_0.02_)_Î£=1_Al_1.00_Si_2.00_O_6_
Cell parameters: a: 13.0603(3) b: 13.0603(3) c: 13.7587(4) alpha: 90 beta: 90 gamma: 90 volume: 2346.8(1) crystal system: tetragonal
x	intensity
5	0
5.22	6.265
5.44	4.165
5.66	11.57
5.88	18.386
6.1	10.483
6.32	15.521
6.54	8.14
6.76	5.404
6.98	10.986
7.2	1.699
7.42	12.16
7.64	5.294
7.86	1.189
8.08	0.381
8.3	2.031
8.52	5.467
8.74	5.924
8.96	1.659
9.18	5.115
9.4	29.257
9.62	5.556
9.84	0.821
10.06	7.187
10.28	6.556
10.5	2.755
10.72	5.94
10.94	5.15
11.16	6.157
11.38	8.268
11.6	7.17
11.82	6.42
12.04	6.288
12.26	5.44
12.48	4.309
12.7	2.293
12.92	0.418
13.14	4.53
13.36	3.474
13.58	21.72
13.8	2.763
14.02	6.997
14.24	2.776
14.46	3.912
14.68	2.849
14.9	7.818
15.12	2.394
15.34	1.491
15.56	1.363
15.78	6.268
16	6.018
16.22	13.115
16.44	38.225
16.66	16.38
16.88	0.143
17.1	7.028
17.32	7.273
17.54	3.348
17.76	7.379
17.98	7.654
18.2	4.725
18.42	4.791
18.64	6.796
18.86	5.52
19.08	4.567
19.3	9.718
19.52	1.765
19.74	2.614
19.96	1.321
20.18	5.174
20.4	1.998
20.62	8.055
20.84	2.052
21.06	4.143
21.28	2.151
21.5	5.164
21.72	1.188
21.94	9.201
22.16	6.362
22.38	11.404
22.6	2.088
22.82	3.009
23.04	6.92
23.26	0.946
23.48	2.633
23.7	2.142
23.92	6.853
24.14	0.728
24.36	3.731
24.58	5.352
24.8	17.685
25.02	4.177
25.24	26.778
25.46	76.774
25.68	5.301
25.9	248.185
26.12	25.988
26.34	3.756
26.56	1.255
26.78	3.922
27	7.848
27.22	24.9
27.44	171.488
27.66	12.58
27.88	7.263
28.1	5.491
28.32	19.539
28.54	2.875
28.76	4.187
28.98	17.656
29.2	4.572
29.42	25.54
29.64	2.573
29.86	5.197
30.08	4.09
30.3	22.047
30.52	15.97
30.74	62.052
30.96	1.997
31.18	1.779
31.4	13.34
31.62	40.218
31.84	66.518
32.06	7.906
32.28	10.097
32.5	3.488
32.72	5.707
32.94	0.82
33.16	3.933
33.38	2
33.6	4.035
33.82	5.486
34.04	30.114
34.26	2.286
34.48	5.418
34.7	0.889
34.92	9.147
35.14	3.345
35.36	7.559
35.58	0.963
35.8	3.034
36.02	7.197
36.24	3.304
36.46	6.245
36.68	7.944
36.9	7.727
37.12	3.961
37.34	4.066
37.56	0.851
37.78	14.655
38	97.276
38.22	7.201
38.44	3.178
38.66	2.145
38.88	16.589
39.1	11.093
39.32	9.296
39.54	7.825
39.76	9.747
39.98	0.053
40.2	7.033
40.42	3.197
40.64	8.152
40.86	4.89
41.08	4.815
41.3	10.386
41.52	5.921
41.74	39.773
41.96	3.702
42.18	21.903
42.4	10.999
42.62	12.984
42.84	2.956
43.06	2.151
43.28	3.411
43.5	1.512
43.72	2.636
43.94	8.734
44.16	4.705
44.38	8.669
44.6	3.547
44.82	0.49
45.04	11.579
45.26	11.904
45.48	1.85
45.7	1.678
45.92	9.801
46.14	0.25
46.36	1.283
46.58	0.224
46.8	7.915
47.02	4.693
47.24	10.596
47.46	21.453
47.68	6.102
47.9	0.002
48.12	15.06
48.34	4.096
48.56	8.99
48.78	3.918
49	6.083
49.22	2.244
49.44	3.324
49.66	6.53
49.88	3.509
50.1	3.49
50.32	3.477
50.54	3.365
50.76	7.34
50.98	9.88
51.2	26.94
51.42	2.898
51.64	10.323
51.86	3.52
52.08	4.687
52.3	4.821
52.52	2.961
52.74	3.316
52.96	24.443
53.18	11.236
53.4	13.345
53.62	10.539
53.84	4.438
54.06	3.073
54.28	3.987
54.5	6.904
54.72	5.122
54.94	33.858
55.16	39.8
55.38	23.611
55.6	0.422
55.82	0.822
56.04	2.014
56.26	4.86
56.48	13.754
56.7	15.76
56.92	5.649
57.14	5.236
57.36	0.214
57.58	2.238
57.8	4.344
58.02	12.681
58.24	25.587
58.46	3.779
58.68	4.104
58.9	1.21
59.12	0.247
59.34	1.36
59.56	2.489
59.78	2.571
60	1.728
60.22	12.762
60.44	12.841
60.66	6.808
60.88	10.666
61.1	9.661
61.32	5.925
61.54	0.023
61.76	4.003
61.98	8.025
62.2	1.066
62.42	2.206
62.64	15.175
62.86	15.086
63.08	4.026
63.3	3.079
63.52	4.092
63.74	6.682
63.96	4.779
64.18	5.746
64.4	4.67
64.62	1.739
64.84	4.516
65.06	2.53
65.28	0.279
65.5	1.257
65.72	6.194
65.94	9.434
66.16	8.541
66.38	10.529
66.6	8.483
66.82	4.493
67.04	4.271
67.26	8.111
67.48	0.002
67.7	20.333
67.92	9.36
68.14	15.258
68.36	16.774
68.58	6.895
68.8	0.266
69.02	8.723
69.24	1.818
69.46	14.149
69.68	4.312
69.9	6.445
70.12	11.168
70.34	1.248
70.56	5.386
70.78	3.503
71	3.185
71.22	9.274
71.44	6.407
71.66	2.438
71.88	5.243
72.1	9.218
72.32	14.379
72.54	16.645
72.76	3.649
72.98	8.565
73.2	11.466
73.42	1.623
73.64	7.572
73.86	4.566
74.08	1.378
74.3	8.162
74.52	9.077
74.74	2.844
74.96	5.386
75.18	1.216
75.4	2.141
75.62	2.131
75.84	8.271
76.06	7.331
76.28	8.374
76.5	6.48
76.72	2.917
76.94	0.027
77.16	5.007
77.38	6.341
77.6	3.729
77.82	3.827
78.04	10.897
78.26	8.729
78.48	11.73
78.7	3.704
78.92	9.703
79.14	9.484
79.36	13.577
79.58	7.702
79.8	5.301
80.02	7.501
80.24	5.522
80.46	4.683
80.68	1.824
80.9	1.754
81.12	0.838
81.34	8.835
81.56	4.838
81.78	7.795
82	9.706
82.22	6.789
82.44	6.685
82.66	4.97
82.88	9.052
83.1	4.971
83.32	4.009
83.54	3.968
83.76	1.013
83.98	7.903
84.2	11.094
84.42	1.091
84.64	7.015
84.86	4.882
85.08	1.57
85.3	1.619
85.52	2.983
85.74	6.009
85.96	4.088
86.18	11.17
86.4	5.26
86.62	4.197
86.84	2.323
87.06	0.602
87.28	0.529
87.5	5.497
87.72	3.357
87.94	4.09
88.16	0.834
88.38	2.205
88.6	5.227
88.82	4.278
89.04	2.258
89.26	6.309
89.48	1.533
89.7	3.64
89.92	8.763
