Measurement: Powder, Xray Data XY Processed
Mineral: Leucosphenite
Rruff sample: R060201
Ideal chemistry: Na_4_BaTi^4+^_2_B_2_Si_10_O_30_
Locality: Poudrette Quarry, Mont Saint-Hilaire, Rouville County, Quebec, Canada
Source: Royal Ontario Museum
Description: Bluish-green prismatic crystal associated with small colorless albite crystals
Diffraction sample description: Single crystal, powder profile is calculated
Measured chemistry: (Ba_0.91_[box]_0.09_)_Σ=1_(Na_3.84_K_0.16_)_Σ=4_(Ti_1.77_Nb^5+^_0.18_Zr_0.05_)_Σ=2_B_2.00_Si_10.00_O_30_ ; B not measured but estimated by difference and charge balance
Cell parameters: a: 9.801(1) b: 16.971(3) c: 7.253(1) alpha: 90 beta: 93.243(7) gamma: 90 volume: 1204.6(7) crystal system: monoclinic
x	intensity
5	0
5.22	0
5.44	0
5.66	0
5.88	0
6.1	0
6.32	0
6.54	0
6.76	0
6.98	0
7.2	0
7.42	0
7.64	0
7.86	0
8.08	0
8.3	0
8.52	0
8.74	0
8.96	0
9.18	0
9.4	0
9.62	0
9.84	0
10.06	0
10.28	0
10.5	6.531
10.72	0
10.94	0
11.16	0
11.38	0
11.6	0
11.82	0
12.04	0
12.26	0.001
12.48	0
12.7	0
12.92	0
13.14	0
13.36	0
13.58	0
13.8	0
14.02	0
14.24	0
14.46	0
14.68	0
14.9	0
15.12	0
15.34	0
15.56	0
15.78	0.041
16	0.067
16.22	0.002
16.44	0.019
16.66	0
16.88	0
17.1	0
17.32	0
17.54	0
17.76	0
17.98	0.002
18.2	0.986
18.42	0
18.64	0
18.86	0
19.08	0
19.3	0
19.52	0
19.74	0
19.96	0
20.18	0
20.4	0
20.62	0
20.84	0.451
21.06	2.668
21.28	0.019
21.5	0.039
21.72	0.341
21.94	0
22.16	3.853
22.38	0.009
22.6	0.143
22.82	0
23.04	0
23.26	0
23.48	0
23.7	0.478
23.92	0.164
24.14	0
24.36	0.026
24.58	3.292
24.8	13.996
25.02	0.002
25.24	0
25.46	0
25.68	0
25.9	0
26.12	0
26.34	20.017
26.56	0
26.78	16.785
27	0
27.22	15.061
27.44	0
27.66	0
27.88	10.452
28.1	0
28.32	0
28.54	0
28.76	0
28.98	0
29.2	0
29.42	0
29.64	0
29.86	19.163
30.08	6.279
30.3	6.288
30.52	0
30.74	14.815
30.96	7.9
31.18	5.854
31.4	0.001
31.62	20.707
31.84	0.046
32.06	0
32.28	0
32.5	14.394
32.72	0
32.94	0
33.16	0
33.38	0.254
33.6	0.049
33.82	0
34.04	2.038
34.26	0
34.48	0.001
34.7	1.99
34.92	0
35.14	0
35.36	0
35.58	0
35.8	0
36.02	0
36.24	0.002
36.46	6.454
36.68	15.556
36.9	0.042
37.12	0.039
37.34	0.001
37.56	0
37.78	0.326
38	0
38.22	4
38.44	0.789
38.66	1.061
38.88	1.549
39.1	9.751
39.32	1.595
39.54	9.15
39.76	9.115
39.98	0.057
40.2	2.732
40.42	4.67
40.64	0.014
40.86	3.818
41.08	0.338
41.3	1.226
41.52	1.857
41.74	0
41.96	0
42.18	1.722
42.4	0.001
42.62	4.594
42.84	0.182
43.06	0.091
43.28	0.002
43.5	0.736
43.72	0
43.94	0.438
44.16	2.055
44.38	0.048
44.6	0.647
44.82	2.249
45.04	0.82
45.26	0.236
45.48	0
45.7	1.59
45.92	1.807
46.14	0.63
46.36	0.775
46.58	1.702
46.8	2.539
47.02	0.071
47.24	0.475
47.46	0.327
47.68	1.962
47.9	0.347
48.12	1.772
48.34	0.777
48.56	0.757
48.78	0.69
49	0.302
49.22	1.294
49.44	0.01
49.66	0.577
49.88	0.222
50.1	0.004
50.32	6.294
50.54	2.019
50.76	1.465
50.98	1.097
51.2	0.099
51.42	2.482
51.64	1.432
51.86	0.007
52.08	1.457
52.3	0.425
52.52	1.933
52.74	0.105
52.96	0.212
53.18	0.212
53.4	2.152
53.62	0.244
53.84	0
54.06	8.37
54.28	0.297
54.5	0.583
54.72	0.661
54.94	4.202
55.16	1.07
55.38	0.018
55.6	2.174
55.82	0.382
56.04	1.023
56.26	5.448
56.48	2.922
56.7	0.034
56.92	0.96
57.14	1.325
57.36	1.031
57.58	3.396
57.8	1.125
58.02	0.302
58.24	0.522
58.46	0.191
58.68	1.338
58.9	0.473
59.12	0.221
59.34	1.762
59.56	1.738
59.78	2.323
60	0.573
60.22	1.343
60.44	0.195
60.66	0.257
60.88	2.08
61.1	1.02
61.32	0
61.54	0.51
61.76	1.154
61.98	4.591
62.2	2.249
62.42	1.809
62.64	0.651
62.86	2.774
63.08	1.49
63.3	0.022
63.52	0.317
63.74	0.242
63.96	0.096
64.18	0.028
64.4	1.186
64.62	0.26
64.84	0.16
65.06	1.167
65.28	1.109
65.5	0.042
65.72	0.468
65.94	0.87
66.16	1.422
66.38	0.356
66.6	0.087
66.82	2.189
67.04	1.186
67.26	1.192
67.48	0.234
67.7	0.035
67.92	0.102
68.14	0.19
68.36	0.437
68.58	0.425
68.8	0.492
69.02	0.475
69.24	0.827
69.46	0.124
69.68	1.526
69.9	1.853
70.12	0.697
70.34	0.265
70.56	0.038
70.78	0.689
71	0.881
71.22	0.699
71.44	0.368
71.66	1.974
71.88	3.704
72.1	1.463
72.32	0.003
72.54	0.322
72.76	0.177
72.98	0.892
73.2	1.268
73.42	1.721
73.64	0.817
73.86	0.289
74.08	2.744
74.3	2.07
74.52	0.347
74.74	0.121
74.96	0.502
75.18	0.71
75.4	0.239
75.62	1.213
75.84	0.598
76.06	0
76.28	0.186
76.5	0.079
76.72	0.826
76.94	0.664
77.16	0.34
77.38	0.115
77.6	0.023
77.82	1.53
78.04	2.407
78.26	1.443
78.48	0.355
78.7	0.062
78.92	1.886
79.14	0.667
79.36	0.23
79.58	0.545
79.8	0.414
80.02	0.234
80.24	0.66
80.46	0.345
80.68	0.163
80.9	0.535
81.12	0.207
81.34	0.134
81.56	1.02
81.78	1.324
82	0.26
82.22	0.849
82.44	0.272
82.66	0.104
82.88	1.269
83.1	1.486
83.32	0.512
83.54	1.013
83.76	1.112
83.98	0.112
84.2	0.258
84.42	1.052
84.64	0.564
84.86	0.934
85.08	0.614
85.3	1.402
85.52	0.455
85.74	0.564
85.96	0.518
86.18	0.19
86.4	0.047
86.62	0.293
86.84	0.104
87.06	0.432
87.28	0.775
87.5	0.388
87.72	1.042
87.94	0.543
88.16	0.419
88.38	0.375
88.6	0.158
88.82	0.996
89.04	0.509
89.26	0.024
89.48	0.073
89.7	0.745
89.92	0.144
