Measurement: Powder, Xray Data XY Processed
Mineral: Leucophosphite
Rruff sample: R060338
Ideal chemistry: KFe^3+^_2_(PO_4_)_2_(OH)2H_2_O
Locality: Gunheath pit, St. Austell, Cornwall, England
Source: Michael Scott
Description: White to pale pink spherical aggregates associated with green chalcosiderite, R060339, and orange cyrilovite, R060504
Diffraction sample description: Single crystal, powder profile is calculated
Measured chemistry: K_1.00_(Fe^3+^_1.90_Al_0.10_)_Σ=2_(P_1.00_O_4_)_2_(OH)·2.75H_2_O; H_2_O estimated by difference; (OH) by charge balance
Cell parameters: a: 9.745(3) b: 9.650(4) c: 9.716(5) alpha: 90 beta: 102.41(1) gamma: 90 volume: 892.4(7) crystal system: monoclinic
x	intensity
5	0
5.22	0
5.44	0
5.66	0
5.88	0
6.1	0
6.32	0
6.54	0
6.76	0
6.98	0
7.2	0
7.42	0
7.64	0
7.86	0
8.08	0
8.3	0
8.52	0
8.74	0
8.96	0
9.18	0
9.4	0
9.62	0
9.84	0
10.06	0
10.28	0
10.5	0
10.72	0
10.94	0
11.16	0
11.38	0
11.6	0.652
11.82	0
12.04	0
12.26	0
12.48	0
12.7	0
12.92	0
13.14	5.598
13.36	0
13.58	0
13.8	0
14.02	0
14.24	0
14.46	1.543
14.68	0
14.9	42.708
15.12	0
15.34	0
15.56	0
15.78	0
16	0
16.22	0
16.44	0
16.66	0
16.88	0
17.1	0.044
17.32	0.03
17.54	0
17.76	0
17.98	0
18.2	0
18.42	0.62
18.64	7.883
18.86	0
19.08	0
19.3	0
19.52	0
19.74	0
19.96	0
20.18	0
20.4	0
20.62	12.225
20.84	21.526
21.06	1.288
21.28	0.022
21.5	0
21.72	0.052
21.94	0.23
22.16	0
22.38	0
22.6	0
22.82	0
23.04	0
23.26	0
23.48	3.428
23.7	0
23.92	0
24.14	0
24.36	0.011
24.58	0.372
24.8	0
25.02	0
25.24	2.043
25.46	0
25.68	0
25.9	0
26.12	0
26.34	3.462
26.56	0.311
26.78	0
27	0
27.22	0
27.44	0
27.66	1.216
27.88	0.017
28.1	0
28.32	0
28.54	0
28.76	0
28.98	0
29.2	1.969
29.42	4.095
29.64	2.997
29.86	0.142
30.08	0.92
30.3	0.324
30.52	0
30.74	4.473
30.96	0
31.18	0
31.4	2.72
31.62	2.643
31.84	6.211
32.06	0
32.28	0
32.5	0
32.72	0
32.94	6.904
33.16	0.002
33.38	1.246
33.6	2.957
33.82	13.011
34.04	0.001
34.26	0
34.48	0
34.7	0.097
34.92	0.516
35.14	0
35.36	0.001
35.58	0.709
35.8	1.666
36.02	0.546
36.24	0.156
36.46	0
36.68	1.014
36.9	1.625
37.12	0.001
37.34	0.621
37.56	0
37.78	2.927
38	0.369
38.22	0.275
38.44	1.321
38.66	1.481
38.88	0.018
39.1	0.629
39.32	0.013
39.54	0.131
39.76	0.342
39.98	0.657
40.2	0.101
40.42	0
40.64	0
40.86	0.023
41.08	0
41.3	0
41.52	3.253
41.74	0.069
41.96	1.163
42.18	1.769
42.4	0.121
42.62	0.457
42.84	0.001
43.06	0.295
43.28	0.002
43.5	0.686
43.72	0
43.94	0.192
44.16	0.555
44.38	0.007
44.6	0.366
44.82	0
45.04	0
45.26	0.413
45.48	0.485
45.7	1.692
45.92	0
46.14	0.86
46.36	0.122
46.58	0.192
46.8	0.162
47.02	1.31
47.24	1.245
47.46	1.77
47.68	0.156
47.9	0.365
48.12	3.368
48.34	0.357
48.56	1.481
48.78	1.082
49	0.067
49.22	0
49.44	0.014
49.66	0.187
49.88	0
50.1	0.738
50.32	1.463
50.54	0.728
50.76	0.028
50.98	0.715
51.2	1.524
51.42	1.309
51.64	0.22
51.86	0.38
52.08	0.013
52.3	0.076
52.52	0.698
52.74	0.028
52.96	0.179
53.18	0
53.4	0.778
53.62	0.307
53.84	0.753
54.06	0.555
54.28	0.275
54.5	0.782
54.72	1.985
54.94	0.352
55.16	1.036
55.38	0.542
55.6	1.234
55.82	0.818
56.04	0.369
56.26	0.623
56.48	0.501
56.7	0.17
56.92	0.016
57.14	0.451
57.36	0.021
57.58	0.242
57.8	0.514
58.02	0.12
58.24	0.753
58.46	1.262
58.68	0.033
58.9	1.183
59.12	1.304
59.34	0.565
59.56	0.098
59.78	0
60	0.033
60.22	0.388
60.44	0.314
60.66	1.71
60.88	1.467
61.1	0.465
61.32	0.452
61.54	0.616
61.76	0.162
61.98	0.166
62.2	0.405
62.42	0.26
62.64	0.239
62.86	0.265
63.08	0.721
63.3	0.131
63.52	0.104
63.74	0.001
63.96	0.86
64.18	1.097
64.4	1.091
64.62	0.925
64.84	0.231
65.06	0.082
65.28	1.101
65.5	0.406
65.72	0.111
65.94	0.147
66.16	0.882
66.38	0.88
66.6	0.793
66.82	1.308
67.04	0.443
67.26	0
67.48	0.014
67.7	0.005
67.92	0.001
68.14	0.255
68.36	0.525
68.58	0.311
68.8	0.031
69.02	0.291
69.24	1.175
69.46	0.508
69.68	0.01
69.9	0.163
70.12	0.432
70.34	0.573
70.56	0.899
70.78	0.835
71	0.231
71.22	0.646
71.44	0.394
71.66	0.036
71.88	0.003
72.1	0.259
72.32	0.208
72.54	0.045
72.76	0.298
72.98	0.829
73.2	0.492
73.42	0.649
73.64	0.415
73.86	0.217
74.08	0.406
74.3	0.311
74.52	0.102
74.74	0.012
74.96	0.021
75.18	0.106
75.4	0.344
75.62	0.197
75.84	0.672
76.06	0.334
76.28	0.01
76.5	0.315
76.72	0.382
76.94	0.223
77.16	0.274
77.38	0.156
77.6	0.115
77.82	0.528
78.04	0.542
78.26	0.162
78.48	0.04
78.7	0.037
78.92	0.256
79.14	0.187
79.36	0.073
79.58	0.315
79.8	0.235
80.02	0.325
80.24	0.203
80.46	0.321
80.68	0.17
80.9	0.24
81.12	0.316
81.34	0.487
81.56	0.167
81.78	0.137
82	0.09
82.22	0.096
82.44	0.197
82.66	0.349
82.88	0.117
83.1	0.026
83.32	0.184
83.54	0.084
83.76	0.037
83.98	0.298
84.2	0.144
84.42	0.189
84.64	0.064
84.86	0.02
85.08	0.213
85.3	0.165
85.52	0.059
85.74	0.023
85.96	0.056
86.18	0.662
86.4	0.222
86.62	0.054
86.84	0.013
87.06	0.288
87.28	0.33
87.5	0.13
87.72	0.111
87.94	0.402
88.16	0.144
88.38	0.004
88.6	0.042
88.82	0.082
89.04	0.201
89.26	0.28
89.48	0.102
89.7	0.436
89.92	0.236
