Measurement: Powder, Xray Data XY Processed
Mineral: Levyne-Na
Rruff sample: R060021
Ideal chemistry: Na_6_(Si_12_Al_6_)O_36_18H_2_O
Locality: Dallas, Oregon, USA
Source: Bob Downs
Description: White tabular hexagonal-shaped crystals associated with analcime, R060023
Diffraction sample description: Powder
Measured chemistry: (Na_0.70_Ca_0.26_K_0.04_)_6_(Si_0.58_Al_0.42_)_18_O_36_Â·18H_2_O
Cell parameters: a: 13.3399(4) b: 13.3399(4) c: 22.518(1) alpha: 90 beta: 90 gamma: 120 volume: 3470.2(0) crystal system: hexagonal
x	intensity
5	0
5.22	14.653
5.44	0.473
5.66	6.525
5.88	14.271
6.1	5.148
6.32	10.668
6.54	2.025
6.76	14.74
6.98	2.419
7.2	4.536
7.42	7.916
7.64	6.337
7.86	10.797
8.08	10.553
8.3	10.635
8.52	52.278
8.74	13.942
8.96	8.275
9.18	5.536
9.4	4.642
9.62	0.687
9.84	9.655
10.06	8.576
10.28	4.673
10.5	6.315
10.72	7.53
10.94	236.095
11.16	13.258
11.38	0.108
11.6	9.807
11.82	307.701
12.04	8.041
12.26	6.181
12.48	17.482
12.7	5.695
12.92	2.003
13.14	10.268
13.36	32.26
13.58	12.263
13.8	0.399
14.02	0.925
14.24	2.386
14.46	9.41
14.68	6.697
14.9	6.536
15.12	5.092
15.34	2.355
15.56	1.981
15.78	10.171
16	5.125
16.22	9.158
16.44	0.027
16.66	10.803
16.88	5.903
17.1	10.002
17.32	180.376
17.54	29.207
17.76	11.361
17.98	2.03
18.2	8.354
18.42	1.586
18.64	4.622
18.86	5.034
19.08	10.708
19.3	2.17
19.52	4.431
19.74	15.843
19.96	5.219
20.18	1.406
20.4	3.626
20.62	0.443
20.84	8.636
21.06	18.67
21.28	277.078
21.5	15.894
21.72	26.483
21.94	142.611
22.16	2.484
22.38	12.014
22.6	7.698
22.82	2.211
23.04	31.117
23.26	6.15
23.48	6.929
23.7	10.337
23.92	2.692
24.14	6.706
24.36	1.779
24.58	8.789
24.8	3.458
25.02	24.037
25.24	17.12
25.46	5.404
25.68	18.059
25.9	146.735
26.12	7.74
26.34	9.049
26.56	2.47
26.78	61.82
27	9.954
27.22	26
27.44	3.984
27.66	5.772
27.88	5.723
28.1	16.634
28.32	6.535
28.54	149.607
28.76	79.46
28.98	163.143
29.2	7.269
29.42	8.604
29.64	3.98
29.86	8.41
30.08	6.494
30.3	8.606
30.52	2.703
30.74	1.763
30.96	3.517
31.18	34.147
31.4	21.188
31.62	3.029
31.84	133.203
32.06	274.083
32.28	5.861
32.5	2.998
32.72	5.059
32.94	2.234
33.16	3.413
33.38	10.591
33.6	3.623
33.82	5.333
34.04	1.247
34.26	1.901
34.48	18.932
34.7	117.065
34.92	0.081
35.14	7.536
35.36	3.853
35.58	102.194
35.8	6.547
36.02	19.882
36.24	5.163
36.46	6.097
36.68	6.104
36.9	10.166
37.12	5.231
37.34	9.643
37.56	47.373
37.78	32.961
38	11.88
38.22	3.695
38.44	1.496
38.66	4.332
38.88	2.386
39.1	1.547
39.32	8.653
39.54	10.587
39.76	18.181
39.98	0.152
40.2	6.273
40.42	0.227
40.64	11.935
40.86	14.139
41.08	4.257
41.3	1.216
41.52	6.453
41.74	0.336
41.96	2.363
42.18	22.363
42.4	48.405
42.62	4.505
42.84	6.613
43.06	30.117
43.28	16.091
43.5	1.07
43.72	6.211
43.94	4.936
44.16	10.922
44.38	10.987
44.6	16.124
44.82	13.345
45.04	0.294
45.26	2.484
45.48	1.77
45.7	3.84
45.92	5.012
46.14	0.091
46.36	3.942
46.58	17.18
46.8	10.511
47.02	6.351
47.24	9.913
47.46	1.713
47.68	3.14
47.9	3.93
48.12	6.707
48.34	6.546
48.56	17.523
48.78	1.423
49	3.632
49.22	7.585
49.44	20.627
49.66	3.613
49.88	4.913
50.1	3.319
50.32	6.162
50.54	16.151
50.76	4.245
50.98	5.223
51.2	3.235
51.42	99.748
51.64	27.806
51.86	2.336
52.08	1.543
52.3	5.486
52.52	6.403
52.74	11.973
52.96	7.415
53.18	4.873
53.4	4.108
53.62	1.16
53.84	1.291
54.06	1.161
54.28	3.676
54.5	11.687
54.72	3.953
54.94	7.831
55.16	27.403
55.38	14.775
55.6	4.991
55.82	7.019
56.04	9.935
56.26	14.158
56.48	1.221
56.7	0.609
56.92	1.028
57.14	8.063
57.36	0.331
57.58	5.431
57.8	11.621
58.02	9.391
58.24	19.72
58.46	1.132
58.68	3.966
58.9	6.996
59.12	2.954
59.34	6.311
59.56	1.552
59.78	13.185
60	28.254
60.22	2.154
60.44	7.013
60.66	14.642
60.88	10.489
61.1	2.832
61.32	4.845
61.54	18.937
61.76	11.512
61.98	7.582
62.2	3.699
62.42	4.657
62.64	1.16
62.86	0.103
63.08	11.45
63.3	13.654
63.52	7.471
63.74	5.459
63.96	10.354
64.18	2.405
64.4	10.454
64.62	11.364
64.84	10.106
65.06	30.029
65.28	19.93
65.5	8.242
65.72	5.796
65.94	4.468
66.16	2.277
66.38	9.571
66.6	28.392
66.82	9.277
67.04	5.386
67.26	6.571
67.48	43.726
67.7	19.074
67.92	6.647
68.14	3.052
68.36	12.575
68.58	14.562
68.8	6.838
69.02	1.941
69.24	3.068
69.46	5.127
69.68	0.395
69.9	15.352
70.12	17.202
70.34	9.863
70.56	2.604
70.78	2.415
71	0.583
71.22	1.637
71.44	10.407
71.66	9.413
71.88	10.143
72.1	0.9
72.32	5.916
72.54	9.822
72.76	0.827
72.98	13.88
73.2	13.304
73.42	10.255
73.64	16.452
73.86	20.378
74.08	10.3
74.3	4.293
74.52	2.205
74.74	1.856
74.96	8.076
75.18	2.998
75.4	7.897
75.62	17.404
75.84	8.528
76.06	6.599
76.28	6.747
76.5	20.963
76.72	11.191
76.94	5.552
77.16	9.872
77.38	6.297
77.6	0.24
77.82	3.222
78.04	1.601
78.26	0.486
78.48	0.638
78.7	11.454
78.92	2.401
79.14	6.308
79.36	0.309
79.58	26.181
79.8	11.999
80.02	11.863
80.24	7.406
80.46	2.384
80.68	2.434
80.9	1.78
81.12	2.69
81.34	4.919
81.56	5.07
81.78	4.209
82	6.389
82.22	3.308
82.44	6.428
82.66	10.628
82.88	2.641
83.1	1.564
83.32	4.186
83.54	1.527
83.76	7.303
83.98	9.191
84.2	10.022
84.42	4.857
84.64	2.847
84.86	13.936
85.08	7.873
85.3	2.89
85.52	0.934
85.74	7.236
85.96	3.003
86.18	7.188
86.4	8.36
86.62	7.394
86.84	5.559
87.06	2.712
87.28	0.693
87.5	3.818
87.72	0.947
87.94	1.955
88.16	6.992
88.38	3.09
88.6	4.264
88.82	1.392
89.04	2.587
89.26	5.798
89.48	2.899
89.7	4.449
89.92	2.868
