Measurement: Powder, Xray Data XY Processed
Mineral: Libyan Desert glass
Rruff sample: R060357
Ideal chemistry: SiO_2_
Locality: Libyan Desert, Sahara Desert, Egypt
Source: Herb Obodda
Description: Pale tan amorphous fragment
Diffraction sample description: Powder, amorphous
Measured chemistry: Si_1.00_O_2_
x	intensity
5	0
5.22	9.17918
5.44	3.66723
5.66	1.41725
5.88	9.39011
6.1	7.72745
6.32	0.146181
6.54	8.23375
6.76	7.63902
6.98	2.01033
7.2	2.31049
7.42	2.68589
7.64	8.84653
7.86	4.03784
8.08	2.59459
8.3	7.01676
8.52	9.36868
8.74	7.36338
8.96	5.26438
9.18	7.36139
9.4	9.15688
9.62	11.2124
9.84	10.0931
10.06	7.09821
10.28	12.2395
10.5	1.00713
10.72	13.6286
10.94	7.34122
11.16	5.12581
11.38	6.21856
11.6	5.0089
11.82	1.82525
12.04	3.487
12.26	1.40474
12.48	9.03505
12.7	10.0479
12.92	11.9594
13.14	9.72919
13.36	10.8394
13.58	7.76236
13.8	12.2327
14.02	8.15492
14.24	5.03522
14.46	13.6012
14.68	6.12904
14.9	3.55069
15.12	10.3347
15.34	0.76107
15.56	4.2201
15.78	7.19446
16	7.60334
16.22	1.92491
16.44	2.12629
16.66	6.6829
16.88	15.1514
17.1	4.15098
17.32	11.6542
17.54	9.93558
17.76	14.8039
17.98	24.645
18.2	7.73282
18.42	5.19444
18.64	2.2143
18.86	13.9353
19.08	13.2565
19.3	3.56115
19.52	21.2287
19.74	5.99343
19.96	12.467
20.18	12.3655
20.4	7.62593
20.62	16.7713
20.84	6.63682
21.06	13.3969
21.28	16.4127
21.5	26.4031
21.72	12.8564
21.94	20.6632
22.16	21.7396
22.38	8.56388
22.6	30.3186
22.82	12.1867
23.04	7.07318
23.26	8.69016
23.48	6.59849
23.7	20.1727
23.92	4.60006
24.14	14.5796
24.36	8.91901
24.58	0.631224
24.8	8.71317
25.02	8.76783
25.24	10.5705
25.46	5.4624
25.68	6.56694
25.9	3.40541
26.12	4.71571
26.34	15.4665
26.56	13.0671
26.78	4.85435
27	4.47573
27.22	7.13327
27.44	4.77941
27.66	14.4174
27.88	3.96409
28.1	6.55744
28.32	4.21792
28.54	4.42444
28.76	14.9822
28.98	11.5199
29.2	11.0018
29.42	9.69909
29.64	9.10185
29.86	10.3004
30.08	7.83916
30.3	3.11003
30.52	7.28259
30.74	7.39504
30.96	2.00414
31.18	5.29297
31.4	4.57171
31.62	8.78682
31.84	1.63361
32.06	5.76352
32.28	5.84336
32.5	4.97628
32.72	13.1817
32.94	7.30074
33.16	8.44822
33.38	2.33318
33.6	6.89971
33.82	12.9217
34.04	17.2547
34.26	3.43526
34.48	9.92752
34.7	6.03311
34.92	4.17792
35.14	4.30685
35.36	2.62357
35.58	5.52508
35.8	7.68277
36.02	2.53597
36.24	5.47002
36.46	14.4952
36.68	1.60477
36.9	8.44454
37.12	6.54765
37.34	6.73481
37.56	1.13509
37.78	6.82739
38	9.89232
38.22	13.1368
38.44	1.34472
38.66	10.8375
38.88	6.97721
39.1	2.51835
39.32	9.57672
39.54	5.72074
39.76	4.91491
39.98	6.08842
40.2	3.2149
40.42	2.4638
40.64	11.6306
40.86	2.59548
41.08	0.551753
41.3	8.51139
41.52	8.20805
41.74	7.23842
41.96	5.18695
42.18	4.078
42.4	6.05928
42.62	3.04777
42.84	1.82978
43.06	1.84181
43.28	10.8903
43.5	7.71613
43.72	1.47112
43.94	3.2535
44.16	3.16192
44.38	8.04481
44.6	6.96207
44.82	9.86989
45.04	2.8317
45.26	9.9317
45.48	4.98136
45.7	5.30734
45.92	1.54116
46.14	8.83545
46.36	3.12859
46.58	0.400248
46.8	17.557
47.02	8.03684
47.24	4.11953
47.46	10.1948
47.68	7.91906
47.9	3.85268
48.12	5.50429
48.34	4.58082
48.56	7.59793
48.78	9.50233
49	6.73301
49.22	0.103119
49.44	10.6893
49.66	9.88444
49.88	9.94545
50.1	7.06707
50.32	8.1613
50.54	0.686497
50.76	5.40324
50.98	4.43945
51.2	3.41749
51.42	7.07633
51.64	1.09573
51.86	6.77757
52.08	11.7807
52.3	13.8239
52.52	7.81901
52.74	0.685856
52.96	8.4563
53.18	3.37689
53.4	3.18697
53.62	1.60878
53.84	14.3338
54.06	1.59117
54.28	4.36492
54.5	6.21879
54.72	8.22103
54.94	6.2086
55.16	7.28729
55.38	0.394902
55.6	0.160937
55.82	4.03408
56.04	8.13342
56.26	3.21025
56.48	4.16631
56.7	1.78945
56.92	10.2659
57.14	8.20894
57.36	4.1131
57.58	16.0257
57.8	7.39457
58.02	0.233163
58.24	7.57114
58.46	4.81337
58.68	1.95866
58.9	8.97689
59.12	3.0931
59.34	1.05004
59.56	2.88143
59.78	6.34797
60	6.30917
60.22	3.96469
60.44	9.04673
60.66	3.38006
60.88	1.8787
61.1	7.96755
61.32	4.90088
61.54	12.8494
61.76	6.75006
61.98	0.268285
62.2	4.62724
62.42	4.48626
62.64	3.38574
62.86	0.079331
63.08	7.97721
63.3	1.38724
63.52	8.36833
63.74	4.30287
63.96	3.18415
64.18	0.803799
64.4	3.02594
64.62	5.32013
64.84	12.2707
65.06	6.24954
65.28	7.30756
65.5	7.99472
65.72	5.77352
65.94	5.78936
66.16	0.086952
66.38	4.22245
66.6	6.55584
66.82	6.7726
67.04	3.46814
67.26	5.53005
67.48	11.6084
67.7	2.56024
67.92	3.5337
68.14	7.61236
68.36	5.36053
68.58	0.603557
68.8	9.26875
69.02	10.2549
69.24	1.07097
69.46	2.99174
69.68	4.04242
69.9	7.22515
70.12	3.39565
70.34	2.67422
70.56	2.74307
70.78	8.00795
71	0.915231
71.22	8.13192
71.44	0.957562
71.66	4.04697
71.88	6.01364
72.1	9.93222
72.32	2.74627
72.54	2.81032
72.76	1.54593
72.98	3.47648
73.2	2.18874
73.42	9.18297
73.64	15.3393
73.86	2.26326
74.08	1.23363
74.3	8.24103
74.52	1.39444
74.74	4.46775
74.96	4.38055
75.18	3.37798
75.4	4.3492
75.62	5.49744
75.84	5.6358
76.06	9.76221
76.28	0.782253
76.5	11.8271
76.72	8.97918
76.94	9.01896
77.16	11.1741
77.38	9.16118
77.6	0.236323
77.82	7.47042
78.04	8.27721
78.26	9.00698
78.48	12.9992
78.7	7.0524
78.92	2.74876
79.14	1.1388
79.36	8.91266
79.58	9.24082
79.8	1.27357
80.02	1.3408
80.24	6.35633
80.46	8.57516
80.68	0.549536
80.9	3.62585
81.12	1.68023
81.34	9.73885
81.56	2.06521
81.78	3.89796
82	7.79455
82.22	7.95121
82.44	9.99667
82.66	5.09164
82.88	5.03793
83.1	6.2206
83.32	4.52784
83.54	6.55907
83.76	6.66717
83.98	7.77715
84.2	6.00695
84.42	8.04063
84.64	0.01557
84.86	0.175484
85.08	4.35868
85.3	9.44367
85.52	3.25891
85.74	8.38185
85.96	5.53614
86.18	5.4243
86.4	1.19467
86.62	3.30438
86.84	2.57944
87.06	1.46035
87.28	5.34241
87.5	1.26987
87.72	2.30211
87.94	2.46645
88.16	5.56211
88.38	8.47624
88.6	0.324392
88.82	6.5538
89.04	7.6427
89.26	8.8232
89.48	6.09239
89.7	7.64026
89.92	0.518734
