Measurement: Powder, Xray Data XY Processed
Mineral: Liebigite
Rruff sample: R050662
Ideal chemistry: Ca_2_(U^6+^O_2_)(CO_3_)_3_11H_2_O
Locality: Schwartzwaelder mine, Jefferson County, Colorado, USA
Source: University of Arizona Mineral Museum
Description: Yellowish-green flaky aggregate
Diffraction sample description: Powder
Measured chemistry: Ca_2.00_(U_1.00_O_2_)(CO_3_)_3_Â·11H_2_O ; C not measured but estimated by stoichiometry
Cell parameters: a: 16.710(1) b: 17.565(2) c: 13.686(2) alpha: 90. beta: 90. gamma: 90. volume: 4017.1(5) crystal system: orthorhombic
x	intensity
5	0
5.22	5.265
5.44	14.249
5.66	9.911
5.88	15.43
6.1	2.812
6.32	3.563
6.54	3.282
6.76	7.659
6.98	5.23
7.2	3.464
7.42	4.161
7.64	5.453
7.86	4.754
8.08	5.958
8.3	3.33
8.52	1.71
8.74	4.036
8.96	0.537
9.18	5.304
9.4	5.954
9.62	7.732
9.84	25.202
10.06	82.48
10.28	5.366
10.5	14.481
10.72	46.227
10.94	2.399
11.16	0.113
11.38	4.178
11.6	3.58
11.82	8.736
12.04	4.922
12.26	4.098
12.48	3.74
12.7	9.674
12.92	26.855
13.14	191.974
13.36	7.052
13.58	4.767
13.8	3.61
14.02	0.568
14.24	4.669
14.46	1.783
14.68	36.933
14.9	7.029
15.12	3.019
15.34	8.872
15.56	3.798
15.78	0.676
16	0.722
16.22	6.807
16.44	69.795
16.66	10.883
16.88	24.812
17.1	8.767
17.32	11.172
17.54	3.137
17.76	4.457
17.98	15.636
18.2	7.768
18.42	1.721
18.64	6.523
18.86	9.498
19.08	2.273
19.3	6.265
19.52	18.392
19.74	23.009
19.96	6.99
20.18	4.648
20.4	3.565
20.62	6.694
20.84	6.615
21.06	2.551
21.28	16.928
21.5	6.909
21.72	2.783
21.94	67.476
22.16	4.465
22.38	1.445
22.6	16.417
22.82	9.308
23.04	7.227
23.26	1.28
23.48	1.484
23.7	31.366
23.92	7.437
24.14	10.653
24.36	6.785
24.58	0.986
24.8	1.974
25.02	38.125
25.24	6.969
25.46	0.938
25.68	1.117
25.9	1.64
26.12	3.299
26.34	7.15
26.56	3.527
26.78	21.498
27	22.02
27.22	17.758
27.44	6.537
27.66	3.461
27.88	3.328
28.1	7.306
28.32	12.279
28.54	1.299
28.76	128.427
28.98	5.944
29.2	6.128
29.42	14.694
29.64	5.95
29.86	1.267
30.08	9.593
30.3	1.041
30.52	5.011
30.74	4.105
30.96	6.315
31.18	1.236
31.4	7.168
31.62	6.726
31.84	15.745
32.06	9.551
32.28	7.23
32.5	12.004
32.72	8.688
32.94	0.398
33.16	5.092
33.38	5.697
33.6	1.608
33.82	24.578
34.04	1.587
34.26	1.227
34.48	5.215
34.7	4.28
34.92	17.698
35.14	1.907
35.36	11.91
35.58	5.589
35.8	8.794
36.02	5.119
36.24	5.355
36.46	6.781
36.68	3.993
36.9	24.143
37.12	0.981
37.34	3.106
37.56	1.106
37.78	0.199
38	2.199
38.22	5.136
38.44	5.948
38.66	7.74
38.88	0.431
39.1	8.276
39.32	13.589
39.54	13.744
39.76	14.441
39.98	12.284
40.2	5.226
40.42	1.349
40.64	4.237
40.86	1.079
41.08	2.918
41.3	5.743
41.52	7.487
41.74	4.365
41.96	3.04
42.18	29.785
42.4	16.527
42.62	4.085
42.84	1.892
43.06	9.701
43.28	4.549
43.5	7.277
43.72	15.014
43.94	2.534
44.16	4.502
44.38	1.176
44.6	14.018
44.82	23.99
45.04	1.815
45.26	3.767
45.48	12.951
45.7	35.034
45.92	10.304
46.14	13.347
46.36	9.086
46.58	10.137
46.8	4.498
47.02	5.903
47.24	4.239
47.46	0.491
47.68	7.523
47.9	5.671
48.12	2.211
48.34	9.468
48.56	9.942
48.78	6.607
49	10.594
49.22	2.271
49.44	0.772
49.66	1.768
49.88	7.068
50.1	4.374
50.32	6.503
50.54	4.108
50.76	16.296
50.98	0.473
51.2	0.471
51.42	7.634
51.64	10.513
51.86	5.569
52.08	1.492
52.3	5.069
52.52	1.257
52.74	7.509
52.96	7.203
53.18	2.892
53.4	8.001
53.62	5.894
53.84	12.67
54.06	6.593
54.28	6.49
54.5	0.948
54.72	2.042
54.94	14.229
55.16	19.425
55.38	8.681
55.6	4.969
55.82	0.736
56.04	4.36
56.26	6.667
56.48	5.829
56.7	0.844
56.92	8.794
57.14	1.893
57.36	2.879
57.58	14.814
57.8	3.789
58.02	5.646
58.24	6.589
58.46	2.181
58.68	8.315
58.9	6.432
59.12	8.292
59.34	12.163
59.56	4.259
59.78	1.283
60	4.363
60.22	7.358
60.44	10.482
60.66	2.566
60.88	5.888
61.1	3.003
61.32	1.978
61.54	5.006
61.76	3.908
61.98	0.125
62.2	1.086
62.42	9.907
62.64	15.716
62.86	0.495
63.08	4.31
63.3	0.128
63.52	8.3
63.74	8.22
63.96	8.216
64.18	8.228
64.4	4.555
64.62	7.954
64.84	6.199
65.06	5.442
65.28	2.691
65.5	6.169
65.72	0.504
65.94	3.677
66.16	7.771
66.38	9.811
66.6	3.111
66.82	1.794
67.04	1.221
67.26	12.1
67.48	6.088
67.7	1.212
67.92	0.815
68.14	6.761
68.36	6.735
68.58	10.677
68.8	0.394
69.02	4.267
69.24	0.707
69.46	10.457
69.68	8.513
69.9	6.393
70.12	4.155
70.34	7.151
70.56	4.203
70.78	9.17
71	0.342
71.22	2.589
71.44	4.705
71.66	2.776
71.88	3.765
72.1	4.042
72.32	6.289
72.54	2.376
72.76	1.446
72.98	3.496
73.2	15.566
73.42	3.558
73.64	8.466
73.86	4.611
74.08	4.871
74.3	7.842
74.52	3.595
74.74	1.749
74.96	1.786
75.18	0.78
75.4	1.661
75.62	8.604
75.84	2.74
76.06	4.78
76.28	11.466
76.5	0.753
76.72	9.168
76.94	0.123
77.16	4.04
77.38	6.925
77.6	3.839
77.82	3.765
78.04	6.775
78.26	2.555
78.48	8.517
78.7	3.518
78.92	4.042
79.14	6.212
79.36	6.113
79.58	2.012
79.8	2.066
80.02	0.116
80.24	1.228
80.46	5.172
80.68	1.145
80.9	7.034
81.12	0
81.34	8.538
81.56	1.498
81.78	0.446
82	5.751
82.22	3.836
82.44	2.87
82.66	3.072
82.88	4.615
83.1	2.818
83.32	8.074
83.54	0.26
83.76	8.256
83.98	0.501
84.2	3.458
84.42	5.311
84.64	2.25
84.86	5.043
85.08	0.035
85.3	6.524
85.52	2.653
85.74	6.415
85.96	4.367
86.18	0.454
86.4	11.351
86.62	5.473
86.84	5.615
87.06	5.727
87.28	5.76
87.5	0.091
87.72	5.992
87.94	4.809
88.16	0.886
88.38	1.992
88.6	2.998
88.82	3.19
89.04	3.166
89.26	1.146
89.48	3.447
89.7	7.897
89.92	7.518
