Measurement: Powder, Xray Data XY Processed
Mineral: Linarite
Rruff sample: R060130
Ideal chemistry: Pb^2+^Cu^2+^S^6+^O_4_(OH)_2_
Locality: Graham County, Arizona, USA
Source: University of Arizona Mineral Museum
Description: Azure-blue fragments in quartz
Diffraction sample description: Powder
Measured chemistry: Pb_1.00_Cu_1.00_(S_1.00_O_4_)(OH)_2_
Cell parameters: a: 9.6921(7) b: 5.6470(5) c: 4.6869(3) alpha: 90 beta: 102.667(4) gamma: 90 volume: 250.28(2) crystal system: monoclinic
x	intensity
5	0
5.22	3.016
5.44	6.405
5.66	11.762
5.88	12.594
6.1	11.179
6.32	15.708
6.54	9.973
6.76	5.996
6.98	5.505
7.2	0.207
7.42	2.97
7.64	11.011
7.86	0.922
8.08	7.995
8.3	14.865
8.52	3.649
8.74	6.656
8.96	0.941
9.18	9.889
9.4	96.958
9.62	10.146
9.84	2.296
10.06	8.459
10.28	4.484
10.5	1.306
10.72	6.07
10.94	12.393
11.16	9.419
11.38	5.339
11.6	6.609
11.82	11.654
12.04	12.612
12.26	0.73
12.48	0.917
12.7	9.042
12.92	0.992
13.14	10.79
13.36	3.869
13.58	7.879
13.8	0.714
14.02	0.954
14.24	6.823
14.46	3.861
14.68	5.889
14.9	3.566
15.12	3.636
15.34	4.418
15.56	0.765
15.78	3.112
16	3.925
16.22	6.957
16.44	5.609
16.66	7.459
16.88	4.499
17.1	2.253
17.32	4.993
17.54	1.688
17.76	6.841
17.98	7.879
18.2	12.487
18.42	49.234
18.64	7.884
18.86	12.679
19.08	5.611
19.3	9.268
19.52	9.288
19.74	121.533
19.96	15.912
20.18	1.208
20.4	2.979
20.62	3.416
20.84	7.871
21.06	6.136
21.28	10.45
21.5	7.633
21.72	9.778
21.94	11.889
22.16	8.394
22.38	11.26
22.6	12.88
22.82	6.456
23.04	2.328
23.26	10.714
23.48	17.149
23.7	7.395
23.92	13.86
24.14	6.289
24.36	8.404
24.58	79.727
24.8	9.413
25.02	47.768
25.24	39.956
25.46	18.709
25.68	4.384
25.9	5.845
26.12	6.243
26.34	9.63
26.56	2.756
26.78	4.838
27	7.721
27.22	11.477
27.44	4.844
27.66	8.361
27.88	7.857
28.1	29.268
28.32	263.195
28.54	43.035
28.76	121.712
28.98	22.572
29.2	4.542
29.42	1.966
29.64	2.207
29.86	12.589
30.08	57.137
30.3	4.865
30.52	0.943
30.74	5.761
30.96	0.936
31.18	7.137
31.4	2.32
31.62	13.555
31.84	21.455
32.06	0.649
32.28	8.277
32.5	4.398
32.72	7.296
32.94	0.756
33.16	58.109
33.38	8.053
33.6	0.057
33.82	2.067
34.04	9.091
34.26	4.514
34.48	16.989
34.7	82.154
34.92	7.023
35.14	4.287
35.36	3.744
35.58	13.011
35.8	3.035
36.02	4.841
36.24	0.579
36.46	7.148
36.68	3.339
36.9	3.572
37.12	13.177
37.34	14.455
37.56	18.01
37.78	18.503
38	10.958
38.22	16.047
38.44	22.153
38.66	10.223
38.88	76.358
39.1	18.626
39.32	5.371
39.54	1.074
39.76	37.219
39.98	39.328
40.2	11.567
40.42	11.557
40.64	7.015
40.86	1.603
41.08	1.741
41.3	6.09
41.52	53.635
41.74	41.728
41.96	12.163
42.18	16.809
42.4	2.336
42.62	15.616
42.84	26.81
43.06	40.11
43.28	3.547
43.5	15.326
43.72	5.707
43.94	7.309
44.16	13.899
44.38	11.514
44.6	2.784
44.82	1.531
45.04	7.466
45.26	7.193
45.48	11.406
45.7	3.665
45.92	4.742
46.14	5.944
46.36	3.936
46.58	15.921
46.8	7.766
47.02	3.568
47.24	8.121
47.46	4.569
47.68	8.819
47.9	12.543
48.12	11.193
48.34	3.336
48.56	2.883
48.78	7.106
49	1.163
49.22	7.228
49.44	8.147
49.66	0.785
49.88	29.696
50.1	16.869
50.32	31.224
50.54	24.524
50.76	40.253
50.98	44.039
51.2	7.281
51.42	17.644
51.64	10.44
51.86	14.478
52.08	7.315
52.3	15.113
52.52	15.483
52.74	6.641
52.96	3.305
53.18	1.837
53.4	2.079
53.62	12.281
53.84	10.43
54.06	11.142
54.28	9.807
54.5	21.936
54.72	18.121
54.94	12.991
55.16	2.015
55.38	0.131
55.6	7.178
55.82	1.707
56.04	12.359
56.26	8.181
56.48	4.393
56.7	10.286
56.92	5.989
57.14	10.776
57.36	5.499
57.58	5.846
57.8	4.51
58.02	7.558
58.24	7.697
58.46	18.708
58.68	30.921
58.9	9.771
59.12	8.134
59.34	4.36
59.56	11.151
59.78	0.19
60	13.521
60.22	10.759
60.44	3.733
60.66	1.217
60.88	4.036
61.1	6.861
61.32	4.6
61.54	13.198
61.76	12.472
61.98	16.267
62.2	5.169
62.42	8.748
62.64	9.813
62.86	9.055
63.08	10.53
63.3	11.06
63.52	7.783
63.74	9.604
63.96	3.973
64.18	17.319
64.4	8.439
64.62	12.949
64.84	13.36
65.06	11.479
65.28	2.232
65.5	6.012
65.72	5.321
65.94	6.058
66.16	20.766
66.38	17.709
66.6	6.607
66.82	13.268
67.04	13.854
67.26	5.753
67.48	6.605
67.7	8.356
67.92	13.451
68.14	7.981
68.36	11.161
68.58	4.802
68.8	10.521
69.02	5.652
69.24	8.937
69.46	4.824
69.68	20.759
69.9	1.758
70.12	19.022
70.34	18.827
70.56	11.96
70.78	4.43
71	8.098
71.22	14.663
71.44	0.673
71.66	2.407
71.88	12.14
72.1	4.947
72.32	13.132
72.54	13.894
72.76	5.774
72.98	7.805
73.2	16.343
73.42	13.363
73.64	17.299
73.86	4.249
74.08	0.087
74.3	13.106
74.52	13.957
74.74	11.286
74.96	9.536
75.18	14.08
75.4	5.504
75.62	6.173
75.84	10.642
76.06	8.646
76.28	6.899
76.5	4.288
76.72	6.42
76.94	5.51
77.16	10.686
77.38	9.544
77.6	7.335
77.82	9.909
78.04	10.87
78.26	0.668
78.48	19.385
78.7	0.067
78.92	10.482
79.14	3.978
79.36	12.725
79.58	6.474
79.8	22.403
80.02	14.561
80.24	11.738
80.46	13.692
80.68	2.277
80.9	1.93
81.12	2.714
81.34	14.544
81.56	2.236
81.78	6.988
82	1.856
82.22	6.787
82.44	3.562
82.66	8.306
82.88	3.133
83.1	4.224
83.32	3.911
83.54	7.583
83.76	20.687
83.98	0.585
84.2	6.524
84.42	4.54
84.64	9.724
84.86	9.98
85.08	6.556
85.3	3.26
85.52	7.194
85.74	13.352
85.96	7.922
86.18	6.834
86.4	13.907
86.62	1.901
86.84	9.968
87.06	0.285
87.28	2.84
87.5	9.761
87.72	4.147
87.94	8.295
88.16	1.446
88.38	3.262
88.6	4.462
88.82	6.363
89.04	4.582
89.26	9.609
89.48	8.378
89.7	5.272
89.92	11.298
