Measurement: Powder, Xray Data XY Processed
Mineral: Linarite
Rruff sample: R060472
Ideal chemistry: Pb^2+^Cu^2+^S^6+^O_4_(OH)_2_
Locality: Tiger, Arizona, USA
Source: Michael Scott
Description: Blue tabular crystals
Diffraction sample description: Single crystal, powder profile is calculated
Measured chemistry: Pb_1.00_Cu_1.00_(S_1.00_O_4_)(OH)_2_
Cell parameters: a: 9.684(2) b: 5.6442(13) c: 4.6823(7) alpha: 90 beta: 102.636(10) gamma: 90 volume: 294.74(13) crystal system: monoclinic
x	intensity
5	0
5.22	0
5.44	0
5.66	0
5.88	0
6.1	0
6.32	0
6.54	0
6.76	0
6.98	0
7.2	0
7.42	0
7.64	0
7.86	0
8.08	0
8.3	0
8.52	0
8.74	0
8.96	0
9.18	0
9.4	11.226
9.62	0
9.84	0
10.06	0
10.28	0
10.5	0
10.72	0
10.94	0
11.16	0
11.38	0
11.6	0
11.82	0
12.04	0
12.26	0
12.48	0
12.7	0
12.92	0
13.14	0
13.36	0
13.58	0
13.8	0
14.02	0
14.24	0
14.46	0
14.68	0
14.9	0
15.12	0
15.34	0
15.56	0
15.78	0
16	0
16.22	0
16.44	0
16.66	0
16.88	0
17.1	0
17.32	0
17.54	0
17.76	0
17.98	0
18.2	0.201
18.42	0.392
18.64	0
18.86	0.239
19.08	0
19.3	0.001
19.52	0.135
19.74	3.197
19.96	0
20.18	0
20.4	0
20.62	0
20.84	0
21.06	0
21.28	0
21.5	0
21.72	0
21.94	0
22.16	0
22.38	0
22.6	0
22.82	0
23.04	0
23.26	0
23.48	0.208
23.7	0
23.92	0.913
24.14	0
24.36	0
24.58	21.874
24.8	0
25.02	33.089
25.24	0.118
25.46	0
25.68	0
25.9	0
26.12	0
26.34	0
26.56	0
26.78	0
27	0
27.22	0
27.44	0
27.66	0
27.88	0
28.1	0
28.32	91.915
28.54	0
28.76	41.761
28.98	0
29.2	0
29.42	0
29.64	0
29.86	0
30.08	10.141
30.3	0
30.52	0
30.74	0.768
30.96	0
31.18	0
31.4	0
31.62	2.648
31.84	0.263
32.06	0
32.28	0
32.5	0.822
32.72	0.001
32.94	0
33.16	13.211
33.38	0
33.6	0
33.82	0
34.04	0.008
34.26	0
34.48	0
34.7	21.468
34.92	0
35.14	0
35.36	0
35.58	0
35.8	0
36.02	0
36.24	0
36.46	0
36.68	0
36.9	0
37.12	3.096
37.34	0.401
37.56	8.324
37.78	0
38	0.684
38.22	0.128
38.44	1.983
38.66	0
38.88	17.333
39.1	0.002
39.32	0.002
39.54	0.042
39.76	13.927
39.98	5.354
40.2	2.794
40.42	0
40.64	0
40.86	0
41.08	0
41.3	0.245
41.52	6.749
41.74	15.526
41.96	0.038
42.18	1.8
42.4	0
42.62	6.336
42.84	1.663
43.06	3.633
43.28	0.033
43.5	0.333
43.72	0.006
43.94	0
44.16	1.985
44.38	0.27
44.6	0.009
44.82	1.908
45.04	0
45.26	0
45.48	0
45.7	0.062
45.92	0.007
46.14	0
46.36	0
46.58	1.215
46.8	0
47.02	0.071
47.24	0
47.46	0
47.68	0
47.9	0.389
48.12	0.062
48.34	0
48.56	0
48.78	0
49	0.014
49.22	0.003
49.44	1.17
49.66	0
49.88	2.87
50.1	0.001
50.32	17.918
50.54	0.97
50.76	5.983
50.98	3.104
51.2	0.045
51.42	6.958
51.64	0.223
51.86	2.191
52.08	0
52.3	2.868
52.52	2.544
52.74	1.744
52.96	0
53.18	0
53.4	0
53.62	0
53.84	0
54.06	0.47
54.28	0.678
54.5	2.106
54.72	0.821
54.94	2.363
55.16	0
55.38	0
55.6	0
55.82	0.215
56.04	1.789
56.26	0
56.48	0.038
56.7	0.813
56.92	0.012
57.14	0.54
57.36	0.001
57.58	0.028
57.8	1.529
58.02	0.032
58.24	0.003
58.46	2.662
58.68	4.454
58.9	1.112
59.12	0.028
59.34	0.065
59.56	1.684
59.78	0.054
60	2.406
60.22	1.26
60.44	0
60.66	0.031
60.88	0.511
61.1	0.064
61.32	0.001
61.54	2.156
61.76	1.44
61.98	2.357
62.2	0.235
62.42	1.84
62.64	0.071
62.86	0
63.08	1.618
63.3	1.731
63.52	0.83
63.74	0.182
63.96	0.318
64.18	0.38
64.4	1.338
64.62	0.611
64.84	0.002
65.06	0.006
65.28	0.04
65.5	0
65.72	1.298
65.94	0.219
66.16	3.913
66.38	3.171
66.6	0.147
66.82	0.039
67.04	0.659
67.26	0.278
67.48	1.366
67.7	0.713
67.92	1.572
68.14	2.384
68.36	0.591
68.58	0
68.8	1.551
69.02	0.735
69.24	0.675
69.46	0.128
69.68	2.988
69.9	1.657
70.12	0.41
70.34	2.48
70.56	2.55
70.78	0.7
71	2.338
71.22	1.324
71.44	0.423
71.66	1.089
71.88	0.595
72.1	0.043
72.32	0
72.54	1.053
72.76	0.732
72.98	0
73.2	1.661
73.42	1.851
73.64	0.982
73.86	0.072
74.08	0
74.3	3.416
74.52	1.684
74.74	0.036
74.96	0.367
75.18	0.162
75.4	1.13
75.62	0.566
75.84	0.676
76.06	0.337
76.28	0
76.5	0
76.72	0
76.94	0.916
77.16	0.532
77.38	0.033
77.6	0.458
77.82	0.181
78.04	0.015
78.26	0.036
78.48	2.267
78.7	1.125
78.92	0.178
79.14	0.236
79.36	0.11
79.58	0.091
79.8	0.392
80.02	0.383
80.24	0.769
80.46	0.74
80.68	0
80.9	0
81.12	0
81.34	0.244
81.56	0.231
81.78	0.003
82	2.082
82.22	0.934
82.44	0.008
82.66	0.021
82.88	0.217
83.1	0.307
83.32	0.028
83.54	1.642
83.76	0.52
83.98	0.295
84.2	0.024
84.42	0.219
84.64	0.427
84.86	0.512
85.08	0.357
85.3	0.031
85.52	1.243
85.74	0.314
85.96	1.007
86.18	0.163
86.4	0
86.62	0.229
86.84	0.347
87.06	0.282
87.28	0.284
87.5	0
87.72	1.367
87.94	0.348
88.16	0.131
88.38	0.92
88.6	0.061
88.82	0.002
89.04	0.117
89.26	0.383
89.48	0.042
89.7	0.022
89.92	1.286
