Measurement: Powder, Xray Data XY Processed
Mineral: Lindgrenite
Rruff sample: R050213
Ideal chemistry: Cu^2+^_3_(Mo^6+^O_4_)_2_(OH)_2_
Locality: Chuquicamata mine, Calama, Antofagasta Province, Chile
Source: John Dagenais
Description: Green tabular single crystals
Diffraction sample description: Single crystal, powder profile is calculated
Measured chemistry: (Cu_2.99_Fe_0.01_)_Î£=3.00_(Mo^6+^_1.00_O_4_)_2_(OH)_2.00_ ; OH not measured but estimated by difference and charge balance
Cell parameters: a: 5.3970(7) b: 14.036(2) c: 5.6138(8) alpha: 90 beta: 98.513(8) gamma: 90 volume: 420.6(1) crystal system: monoclinic
x	intensity
5	0
5.22	0
5.44	0
5.66	0
5.88	0
6.1	0
6.32	0
6.54	0
6.76	0
6.98	0
7.2	0
7.42	0
7.64	0
7.86	0
8.08	0
8.3	0
8.52	0
8.74	0
8.96	0
9.18	0
9.4	0
9.62	0
9.84	0
10.06	0
10.28	0
10.5	0
10.72	0
10.94	0
11.16	0
11.38	0
11.6	0
11.82	0
12.04	0
12.26	0
12.48	0.001
12.7	0.56
12.92	0
13.14	0
13.36	0
13.58	0
13.8	0
14.02	0
14.24	0
14.46	0
14.68	0
14.9	0
15.12	0
15.34	0
15.56	0
15.78	0
16	0
16.22	0
16.44	0
16.66	0
16.88	0
17.1	0.339
17.32	0
17.54	0
17.76	7.001
17.98	0
18.2	0
18.42	0
18.64	0
18.86	0
19.08	0
19.3	0
19.52	0
19.74	0
19.96	0
20.18	0
20.4	41.301
20.62	0
20.84	0.961
21.06	0.001
21.28	49.672
21.5	0
21.72	0
21.94	0
22.16	0.109
22.38	0.004
22.6	0
22.82	0
23.04	0
23.26	0
23.48	0
23.7	0
23.92	0
24.14	0
24.36	0
24.58	0
24.8	26.146
25.02	0.009
25.24	19.11
25.46	7.874
25.68	17.891
25.9	0
26.12	0
26.34	0
26.56	0
26.78	0
27	0
27.22	0
27.44	0
27.66	0
27.88	5.571
28.1	0
28.32	0
28.54	0.003
28.76	1.758
28.98	0
29.2	0
29.42	0
29.64	0
29.86	0
30.08	10.279
30.3	0.002
30.52	4.454
30.74	0
30.96	0
31.18	0
31.4	9.022
31.62	0
31.84	0
32.06	0
32.28	10.802
32.5	0
32.72	0.001
32.94	12.22
33.16	0
33.38	26.646
33.6	10.341
33.82	0
34.04	0.001
34.26	3.686
34.48	0
34.7	3.874
34.92	0.005
35.14	0
35.36	0
35.58	1.159
35.8	16.055
36.02	0.405
36.24	0.01
36.46	11.8
36.68	0.077
36.9	0
37.12	0
37.34	4.814
37.56	0.693
37.78	0.21
38	0
38.22	0
38.44	1.12
38.66	1.539
38.88	0.673
39.1	0.004
39.32	11.094
39.54	0
39.76	0
39.98	0.018
40.2	1.245
40.42	0
40.64	0.005
40.86	4.487
41.08	0
41.3	0
41.52	0.211
41.74	0.212
41.96	2.013
42.18	0.173
42.4	0
42.62	0.126
42.84	0
43.06	0.529
43.28	0.047
43.5	2.685
43.72	0.88
43.94	0.504
44.16	0.016
44.38	0.745
44.6	0.001
44.82	0
45.04	0
45.26	0.001
45.48	0.017
45.7	0
45.92	4.029
46.14	0.15
46.36	0.137
46.58	0
46.8	8.953
47.02	0.863
47.24	0
47.46	0.105
47.68	5.463
47.9	0.657
48.12	1.809
48.34	6.231
48.56	2.129
48.78	0
49	0
49.22	0
49.44	0
49.66	1.881
49.88	0.014
50.1	2.816
50.32	0.081
50.54	0.891
50.76	0.044
50.98	2.44
51.2	2.554
51.42	2.212
51.64	0.147
51.86	1.402
52.08	5.475
52.3	1.15
52.52	0.689
52.74	0.395
52.96	0.571
53.18	9.839
53.4	3.687
53.62	0.599
53.84	0.022
54.06	0
54.28	0
54.5	0
54.72	2.019
54.94	3.064
55.16	4.948
55.38	3.501
55.6	0.075
55.82	0.054
56.04	0.019
56.26	0.501
56.48	0.4
56.7	1.893
56.92	2.154
57.14	3.111
57.36	0.011
57.58	3.641
57.8	3.654
58.02	0.405
58.24	2.603
58.46	5.166
58.68	1.154
58.9	0.948
59.12	0
59.34	1.639
59.56	0.238
59.78	3.524
60	1.427
60.22	5.034
60.44	0.562
60.66	0.006
60.88	0.455
61.1	0.09
61.32	0.085
61.54	0.577
61.76	1.534
61.98	3.351
62.2	0.149
62.42	0.001
62.64	0.149
62.86	0.007
63.08	0.02
63.3	0.021
63.52	0.167
63.74	1.141
63.96	0.221
64.18	0.135
64.4	1.793
64.62	1.688
64.84	0.131
65.06	0.019
65.28	0.026
65.5	0.04
65.72	0.006
65.94	0.2
66.16	0.449
66.38	2.5
66.6	1.254
66.82	0.838
67.04	0.218
67.26	2.328
67.48	5.001
67.7	1.533
67.92	1.089
68.14	0.195
68.36	0
68.58	0.398
68.8	2.796
69.02	2.617
69.24	0.409
69.46	0.065
69.68	0.014
69.9	0.019
70.12	1.316
70.34	3.631
70.56	1.576
70.78	0.691
71	0.716
71.22	0.222
71.44	0.698
71.66	0.285
71.88	0.009
72.1	0.019
72.32	0.332
72.54	0.161
72.76	0
72.98	0.41
73.2	2.566
73.42	1.319
73.64	0.01
73.86	0.005
74.08	0.517
74.3	1.39
74.52	0.966
74.74	0.218
74.96	0.097
75.18	0.057
75.4	0.011
75.62	0.402
75.84	0.587
76.06	1.641
76.28	1.227
76.5	0.565
76.72	1.347
76.94	1.04
77.16	0.542
77.38	0.226
77.6	0.237
77.82	0.17
78.04	0
78.26	0.228
78.48	0.12
78.7	0.012
78.92	0.108
79.14	0.087
79.36	0.038
79.58	0.031
79.8	0.058
80.02	0.538
80.24	0.116
80.46	0.478
80.68	0.638
80.9	0.253
81.12	0.187
81.34	0.074
81.56	0.087
81.78	0.009
82	0.008
82.22	0.016
82.44	0.247
82.66	1.292
82.88	1.08
83.1	0.406
83.32	1.945
83.54	1.135
83.76	0
83.98	2.671
84.2	0.993
84.42	0.136
84.64	0.524
84.86	0.78
85.08	0.449
85.3	0.013
85.52	0.162
85.74	0.22
85.96	0.414
86.18	0.033
86.4	0.199
86.62	0.57
86.84	0.418
87.06	0.369
87.28	0.806
87.5	0.241
87.72	0.246
87.94	0.035
88.16	0.529
88.38	0.226
88.6	0.292
88.82	1.675
89.04	0.636
89.26	0.759
89.48	0.515
89.7	0.019
89.92	0.678
