Measurement: Powder, Xray Data XY Processed
Mineral: Livingstonite
Rruff sample: R050453
Ideal chemistry: HgSb_4_S_8_
Locality: Huitzuco, Guerrero, Mexico
Source: University of Arizona Mineral Museum
Description: Aggregate of gray columnar crystals
Diffraction sample description: Powder
Measured chemistry: Hg_1.00_Sb_4.00_S_8.00_
Cell parameters: a: 30.160(1) b: 4.0018(6) c: 21.460(2) alpha: 90. beta: 104.326(6) gamma: 90. volume: 2509.6(4) crystal system: monoclinic
x	intensity
5	0
5.22	7.427
5.44	7.953
5.66	3.26
5.88	6.657
6.1	5.027
6.32	13.702
6.54	2.408
6.76	4.856
6.98	3.018
7.2	3.433
7.42	0.748
7.64	1.015
7.86	4.219
8.08	6.424
8.3	0.388
8.52	10.74
8.74	2.83
8.96	4.917
9.18	5.039
9.4	3.076
9.62	0.899
9.84	0.814
10.06	3.379
10.28	4.449
10.5	0.555
10.72	2.584
10.94	4.572
11.16	7.557
11.38	0.405
11.6	0.578
11.82	0.412
12.04	8.527
12.26	4.612
12.48	2.546
12.7	0.443
12.92	2.551
13.14	3.601
13.36	6.672
13.58	3.694
13.8	1.718
14.02	0.31
14.24	1.786
14.46	5.672
14.68	3.636
14.9	2.714
15.12	0.072
15.34	4.843
15.56	2.67
15.78	8.581
16	1.54
16.22	4.43
16.44	6.364
16.66	5.359
16.88	3.365
17.1	28.298
17.32	9.161
17.54	1.061
17.76	1.896
17.98	0.269
18.2	4.327
18.42	14.343
18.64	3.425
18.86	1.548
19.08	0.698
19.3	4.36
19.52	4.305
19.74	2.3
19.96	1.257
20.18	5.189
20.4	2.14
20.62	2.137
20.84	4.183
21.06	4.233
21.28	3.163
21.5	4.368
21.72	0.161
21.94	0.095
22.16	1.945
22.38	1.672
22.6	0.471
22.82	4.212
23.04	2.084
23.26	3.763
23.48	19.741
23.7	15.894
23.92	11.899
24.14	4.001
24.36	6.922
24.58	2.912
24.8	1.899
25.02	2.888
25.24	3.852
25.46	7.75
25.68	44.625
25.9	8.506
26.12	1.125
26.34	6.665
26.56	5.707
26.78	2.677
27	11.779
27.22	22.821
27.44	7.85
27.66	7.994
27.88	14.537
28.1	3.023
28.32	3.088
28.54	7.153
28.76	3.065
28.98	2.045
29.2	8.851
29.42	5.748
29.64	10.675
29.86	65.541
30.08	15.307
30.3	1.552
30.52	2.282
30.74	0.719
30.96	18.835
31.18	7.96
31.4	7.116
31.62	3.386
31.84	5.429
32.06	0.49
32.28	1.658
32.5	2.802
32.72	3.949
32.94	1.314
33.16	8.12
33.38	27.308
33.6	12.346
33.82	6.54
34.04	0.607
34.26	2.79
34.48	2.961
34.7	7.029
34.92	2.089
35.14	10.214
35.36	1.258
35.58	9.089
35.8	3.856
36.02	4.705
36.24	5.557
36.46	0.339
36.68	6.337
36.9	11.232
37.12	17.282
37.34	8.445
37.56	8.378
37.78	5.032
38	1.124
38.22	1.064
38.44	9.996
38.66	4.885
38.88	0.79
39.1	4.61
39.32	15.579
39.54	10.559
39.76	28.242
39.98	8.357
40.2	10.517
40.42	0.701
40.64	1.949
40.86	1.266
41.08	0.531
41.3	0.724
41.52	4.865
41.74	2.04
41.96	1.034
42.18	4.013
42.4	3.922
42.62	3.919
42.84	1.623
43.06	7.417
43.28	4.099
43.5	0.883
43.72	9.05
43.94	0.869
44.16	9.755
44.38	6.685
44.6	8.602
44.82	1.5
45.04	2.447
45.26	5.458
45.48	11.633
45.7	8.871
45.92	8.198
46.14	4.828
46.36	1.978
46.58	5.169
46.8	1.144
47.02	1.069
47.24	5.929
47.46	3.793
47.68	0.67
47.9	8.385
48.12	20.188
48.34	6.86
48.56	3.606
48.78	5.596
49	0.369
49.22	5.739
49.44	11.91
49.66	9.051
49.88	3.193
50.1	1.492
50.32	3.555
50.54	1.74
50.76	3.973
50.98	5.024
51.2	1.109
51.42	2.621
51.64	0.573
51.86	3.384
52.08	5.253
52.3	2.144
52.52	14.149
52.74	16.123
52.96	8.119
53.18	18.066
53.4	4.274
53.62	1.542
53.84	0.846
54.06	9.117
54.28	6.518
54.5	2.677
54.72	2.82
54.94	5.613
55.16	3.58
55.38	2.628
55.6	1.683
55.82	2.685
56.04	4.707
56.26	7.683
56.48	4.451
56.7	4.416
56.92	1.478
57.14	1.558
57.36	7.746
57.58	4.899
57.8	3.972
58.02	2.211
58.24	2.391
58.46	2.222
58.68	6.226
58.9	5.193
59.12	1.249
59.34	3.148
59.56	2.192
59.78	3.997
60	5.725
60.22	3.589
60.44	1.074
60.66	2.879
60.88	1.745
61.1	6.608
61.32	1.925
61.54	11.774
61.76	12.908
61.98	6.866
62.2	6.865
62.42	2.953
62.64	8.107
62.86	3.43
63.08	3.453
63.3	8.466
63.52	6.673
63.74	2.275
63.96	0.755
64.18	5.072
64.4	6.918
64.62	1.868
64.84	2.827
65.06	8.801
65.28	6.731
65.5	4.794
65.72	3.96
65.94	5.139
66.16	6.34
66.38	4.555
66.6	4.702
66.82	3.906
67.04	3.094
67.26	4.192
67.48	5.323
67.7	7.214
67.92	6.244
68.14	0.81
68.36	1.095
68.58	6.095
68.8	1.947
69.02	0.986
69.24	4.845
69.46	5.733
69.68	0.436
69.9	0.381
70.12	2.277
70.34	0.088
70.56	8.147
70.78	0.961
71	1.835
71.22	6.798
71.44	4.629
71.66	0.649
71.88	4.716
72.1	4.908
72.32	3.989
72.54	4.068
72.76	3.307
72.98	2.216
73.2	3.187
73.42	0.249
73.64	4.396
73.86	5.423
74.08	1.511
74.3	8.538
74.52	2.468
74.74	8.474
74.96	3.473
75.18	1.316
75.4	2.446
75.62	0.437
75.84	2.43
76.06	5.463
76.28	5.436
76.5	7.42
76.72	0.412
76.94	5.444
77.16	1.521
77.38	5.557
77.6	3.625
77.82	0.397
78.04	3.628
78.26	5.759
78.48	0.579
78.7	4.522
78.92	10.456
79.14	4.272
79.36	1.844
79.58	0.019
79.8	8.05
80.02	8.939
80.24	6.017
80.46	3.107
80.68	4.003
80.9	1.883
81.12	3.378
81.34	2.58
81.56	4.651
81.78	7.759
82	4.821
82.22	3.853
82.44	6.822
82.66	2.749
82.88	3.887
83.1	2.847
83.32	5.747
83.54	6.523
83.76	7.447
83.98	0.422
84.2	1.455
84.42	3.514
84.64	4.452
84.86	7.491
85.08	4.451
85.3	1.346
85.52	1.517
85.74	1.481
85.96	5.864
86.18	3.053
86.4	5.28
86.62	9.209
86.84	1.139
87.06	5.126
87.28	4.091
87.5	5.006
87.72	2.899
87.94	5.981
88.16	1.906
88.38	5.522
88.6	7.351
88.82	7.136
89.04	6.117
89.26	9.152
89.48	3.168
89.7	7.917
89.92	7.267
