Measurement: Powder, Xray Data XY Processed
Mineral: Livingstonite
Rruff sample: R050427
Ideal chemistry: HgSb_4_S_8_
Locality: Huitzuco, Guerrero, Mexico
Source: University of Arizona Mineral Museum
Description: Aggregate of blackish-gray elongated crystals
Diffraction sample description: Powder
Measured chemistry: Hg_1.00_Sb_4.00_S_8.00_
Cell parameters: a: 30.169(5) b: 3.9986(9) c: 21.435(1) alpha: 90. beta: 104.32(1) gamma: 90. volume: 2505.5(7) crystal system: monoclinic
x	intensity
5	0
5.22	4.217
5.44	10.567
5.66	9.363
5.88	6.267
6.1	2.298
6.32	5.922
6.54	4.518
6.76	12.43
6.98	8.09
7.2	7.715
7.42	9.386
7.64	7.798
7.86	4.209
8.08	2.891
8.3	2.99
8.52	10.253
8.74	9.495
8.96	6.699
9.18	3.673
9.4	1.792
9.62	5.917
9.84	5.998
10.06	5.232
10.28	3.194
10.5	1.086
10.72	2.18
10.94	4.2
11.16	0.296
11.38	5.442
11.6	4.473
11.82	5.507
12.04	2.42
12.26	3.548
12.48	6.565
12.7	4.516
12.92	0.369
13.14	5.323
13.36	1.332
13.58	1.729
13.8	4.209
14.02	3.289
14.24	3.285
14.46	3.228
14.68	1.166
14.9	3.969
15.12	0.954
15.34	0.847
15.56	1.777
15.78	5.621
16	2.53
16.22	2.36
16.44	5.176
16.66	6.278
16.88	1.226
17.1	35.229
17.32	2.219
17.54	3.329
17.76	3.494
17.98	0.726
18.2	2.88
18.42	31.036
18.64	7.192
18.86	2.243
19.08	2.133
19.3	5.162
19.52	0.169
19.74	1.241
19.96	3.176
20.18	0.118
20.4	4.011
20.62	0.969
20.84	2.128
21.06	3.133
21.28	0.234
21.5	3.23
21.72	2.058
21.94	3.936
22.16	3.708
22.38	5.515
22.6	3.228
22.82	7.002
23.04	1.74
23.26	8.497
23.48	24.328
23.7	12.976
23.92	15.061
24.14	6.072
24.36	1.089
24.58	1.131
24.8	6.193
25.02	2.3
25.24	7.392
25.46	7.862
25.68	84.026
25.9	7.01
26.12	3.038
26.34	4.83
26.56	0.231
26.78	3.716
27	4.695
27.22	31.678
27.44	3.58
27.66	3.592
27.88	15.284
28.1	5.196
28.32	6.234
28.54	9.116
28.76	2.014
28.98	2.825
29.2	0.674
29.42	1.348
29.64	14.415
29.86	101.221
30.08	21.902
30.3	3.537
30.52	10.245
30.74	3.134
30.96	10.167
31.18	5.621
31.4	10.877
31.62	9.144
31.84	8.391
32.06	5.745
32.28	0.939
32.5	3.331
32.72	0.565
32.94	0.202
33.16	2.07
33.38	35.383
33.6	18.133
33.82	2.223
34.04	4.432
34.26	2.244
34.48	0.262
34.7	3.244
34.92	5.414
35.14	1.39
35.36	0.49
35.58	7.398
35.8	8.167
36.02	4.068
36.24	0.073
36.46	11.726
36.68	6.633
36.9	11.599
37.12	16.858
37.34	2.96
37.56	11.033
37.78	7.019
38	5.936
38.22	0.95
38.44	3.927
38.66	4.872
38.88	2.821
39.1	7.777
39.32	12.891
39.54	25.746
39.76	39.439
39.98	6.588
40.2	14.611
40.42	0.77
40.64	1.961
40.86	0.251
41.08	0.6
41.3	3.499
41.52	0.329
41.74	1.632
41.96	5.519
42.18	10.511
42.4	8.553
42.62	2.394
42.84	7.535
43.06	6.177
43.28	9.025
43.5	4.846
43.72	7.698
43.94	1.693
44.16	0.544
44.38	6.424
44.6	13.134
44.82	6.123
45.04	7.103
45.26	4.96
45.48	14.088
45.7	8.248
45.92	2.624
46.14	3.586
46.36	8.33
46.58	0.547
46.8	0.615
47.02	4.221
47.24	4.939
47.46	0.636
47.68	2.496
47.9	0.257
48.12	22.1
48.34	7.589
48.56	7.471
48.78	0.414
49	3.536
49.22	0.442
49.44	17.676
49.66	6.843
49.88	5.028
50.1	5.288
50.32	8.484
50.54	7.885
50.76	4.265
50.98	8.378
51.2	0.473
51.42	1.271
51.64	10.286
51.86	10.203
52.08	7.108
52.3	7.031
52.52	10.856
52.74	20.76
52.96	14.399
53.18	13.404
53.4	2.512
53.62	3.636
53.84	7.088
54.06	3.309
54.28	1.791
54.5	9.107
54.72	2.307
54.94	5.438
55.16	0.455
55.38	1.475
55.6	6.574
55.82	4.638
56.04	4.734
56.26	10.708
56.48	0.617
56.7	5.394
56.92	2.452
57.14	1.571
57.36	4.731
57.58	1.862
57.8	2.91
58.02	2.968
58.24	6.054
58.46	4.015
58.68	3.74
58.9	2.767
59.12	1.687
59.34	1.398
59.56	3.374
59.78	3.189
60	4.883
60.22	0.629
60.44	5.379
60.66	1.086
60.88	1.094
61.1	6.84
61.32	1.715
61.54	14.642
61.76	13.558
61.98	1.22
62.2	7.905
62.42	2.005
62.64	11.208
62.86	0.39
63.08	0.401
63.3	2.839
63.52	2.932
63.74	4.903
63.96	3.978
64.18	5.047
64.4	5.872
64.62	1.898
64.84	1.93
65.06	15.035
65.28	9.176
65.5	1.125
65.72	8.301
65.94	4.36
66.16	5.661
66.38	7.847
66.6	4.961
66.82	5.088
67.04	6.167
67.26	5.253
67.48	1.3
67.7	1.197
67.92	2.454
68.14	2.339
68.36	1.355
68.58	5.107
68.8	1.953
69.02	2.16
69.24	6.753
69.46	2.628
69.68	3.476
69.9	3.226
70.12	2.024
70.34	1.715
70.56	1.291
70.78	6.595
71	2.541
71.22	4.535
71.44	13.561
71.66	2.472
71.88	4.577
72.1	5.876
72.32	10.039
72.54	6.219
72.76	8.287
72.98	2.186
73.2	1.787
73.42	2.214
73.64	10.225
73.86	7.265
74.08	2.276
74.3	3.107
74.52	8.883
74.74	0.334
74.96	0.555
75.18	1.526
75.4	0.495
75.62	3.494
75.84	0.687
76.06	5.718
76.28	4.856
76.5	6.907
76.72	2.117
76.94	4.338
77.16	0.475
77.38	3.519
77.6	8.755
77.82	2.842
78.04	0.896
78.26	0.017
78.48	0.84
78.7	3.718
78.92	0.482
79.14	1.456
79.36	4.175
79.58	2.02
79.8	9.067
80.02	10.83
80.24	2.79
80.46	2.683
80.68	3.692
80.9	7.766
81.12	0.799
81.34	0.996
81.56	5.045
81.78	1.116
82	3.215
82.22	2.317
82.44	0.657
82.66	6.629
82.88	1.527
83.1	1.521
83.32	5.52
83.54	4.504
83.76	2.394
83.98	1.31
84.2	3.264
84.42	3.188
84.64	2.134
84.86	3.051
85.08	2.007
85.3	7.941
85.52	9.902
85.74	0.921
85.96	3.938
86.18	1.955
86.4	5.03
86.62	6.315
86.84	0.323
87.06	0.257
87.28	1.179
87.5	3.021
87.72	1.985
87.94	6.045
88.16	4.952
88.38	10.861
88.6	0.743
88.82	2.717
89.04	1.351
89.26	7.264
89.48	3.344
89.7	9.213
89.92	2.116
