Measurement: Powder, Xray Data XY Processed
Mineral: Lizardite
Rruff sample: R060006
Ideal chemistry: Mg_3_Si_2_O_5_(OH)_4_
Locality: Snarum, Norway
Source: University of Arizona Mineral Museum
Description: Green blebs of fine-grained serpentine habit, polytype 1T, associated with pearly hydrotalcite
Diffraction sample description: Powder
Measured chemistry: (Mg_0.94_Fe^2+^_0.04_Al_0.02_)_3_(Si_0.97_Al_0.03_)_2_O_5_(OH)_4_
Cell parameters: a: 5.3258(7) b: 5.3258(7) c: 7.273(2) alpha: 90 beta: 90 gamma: 120 volume: 178.67(6) crystal system: hexagonal
x	intensity
5	0
5.22	27.3588
5.44	13.8625
5.66	0.121227
5.88	10.1359
6.1	9.99416
6.32	7.30946
6.54	14.2278
6.76	2.36205
6.98	11.3303
7.2	1.98527
7.42	21.1018
7.64	20.2931
7.86	12.9664
8.08	20.6902
8.3	10.4809
8.52	9.55363
8.74	9.4059
8.96	3.08531
9.18	18.0418
9.4	22.4972
9.62	0.133541
9.84	8.48678
10.06	7.39283
10.28	12.0176
10.5	13.4563
10.72	6.42696
10.94	30.6988
11.16	11.3181
11.38	5.02816
11.6	26.1314
11.82	67.1266
12.04	381.381
12.26	280.623
12.48	22.8743
12.7	21.1991
12.92	10.184
13.14	8.18725
13.36	13.9209
13.58	1.20795
13.8	31.0968
14.02	0.4804
14.24	12.9672
14.46	11.0705
14.68	29.6195
14.9	11.4594
15.12	5.0477
15.34	15.0236
15.56	26.0436
15.78	15.7163
16	15.7936
16.22	10.2228
16.44	32.4633
16.66	22.9223
16.88	6.67022
17.1	8.71687
17.32	23.1603
17.54	13.1889
17.76	9.39683
17.98	9.5468
18.2	8.39192
18.42	26.8109
18.64	25.5419
18.86	0.156441
19.08	10.9915
19.3	126.332
19.52	59.1123
19.74	49.211
19.96	15.1049
20.18	33.9444
20.4	16.655
20.62	3.82935
20.84	26.115
21.06	14.1258
21.28	0.442001
21.5	9.10306
21.72	7.47095
21.94	11.4627
22.16	5.20606
22.38	15.4192
22.6	10.506
22.82	40.3554
23.04	20.3131
23.26	5.10752
23.48	10.2599
23.7	17.721
23.92	16.9114
24.14	43.7801
24.36	194.241
24.58	159.425
24.8	23.1057
25.02	12.4722
25.24	3.96948
25.46	1.84966
25.68	1.98675
25.9	7.05032
26.12	4.12833
26.34	8.28623
26.56	25.784
26.78	4.32924
27	19.3516
27.22	14.2291
27.44	20.0648
27.66	15.1055
27.88	5.4412
28.1	5.1899
28.32	5.21977
28.54	27.8973
28.76	13.4868
28.98	13.5036
29.2	5.59598
29.42	10.1157
29.64	0.238556
29.86	17.7213
30.08	20.8245
30.3	4.90655
30.52	29.2796
30.74	6.29523
30.96	22.5807
31.18	36.3273
31.4	27.5734
31.62	20.2641
31.84	10.4526
32.06	7.57024
32.28	7.68987
32.5	21.1265
32.72	19.8149
32.94	17.6696
33.16	19.857
33.38	9.35326
33.6	22.8303
33.82	27.1916
34.04	17.1944
34.26	27.537
34.48	6.54801
34.7	11.5889
34.92	11.8808
35.14	1.91385
35.36	9.82328
35.58	27.5449
35.8	103.484
36.02	85.2632
36.24	27.5994
36.46	22.6068
36.68	17.5284
36.9	9.35601
37.12	22.1443
37.34	7.95046
37.56	13.7762
37.78	23.6871
38	12.4529
38.22	19.22
38.44	14.7512
38.66	15.9592
38.88	32.8851
39.1	15.1337
39.32	7.82636
39.54	28.4006
39.76	7.13457
39.98	19.6659
40.2	16.925
40.42	3.8492
40.64	9.57507
40.86	10.4267
41.08	19.4904
41.3	20.2917
41.52	15.5551
41.74	14.8319
41.96	45.6817
42.18	31.198
42.4	1.15715
42.62	2.3757
42.84	9.55268
43.06	14.0309
43.28	1.4496
43.5	8.80266
43.72	19.4556
43.94	6.36816
44.16	14.8701
44.38	14.055
44.6	13.3717
44.82	21.7041
45.04	17.7597
45.26	4.97591
45.48	12.4762
45.7	4.91255
45.92	11.7066
46.14	7.35032
46.36	26.451
46.58	7.95541
46.8	13.0804
47.02	13.5306
47.24	28.106
47.46	6.61718
47.68	13.5412
47.9	4.98605
48.12	0.873238
48.34	4.45975
48.56	1.60517
48.78	20.8829
49	18.1233
49.22	11.5833
49.44	12.4129
49.66	6.36114
49.88	13.0103
50.1	29.1802
50.32	4.25725
50.54	19.5093
50.76	27.4409
50.98	27.9862
51.2	11.7255
51.42	5.29127
51.64	13.7652
51.86	8.47915
52.08	9.017
52.3	8.44281
52.52	17.8322
52.74	16.8875
52.96	14.4927
53.18	5.74334
53.4	2.69114
53.62	7.25744
53.84	11.067
54.06	10.6836
54.28	10.5618
54.5	10.0757
54.72	2.42984
54.94	11.5721
55.16	7.03498
55.38	11.4625
55.6	17.3878
55.82	9.66771
56.04	1.68624
56.26	25.2187
56.48	5.70096
56.7	13.3692
56.92	16.3494
57.14	11.176
57.36	16.2706
57.58	13.658
57.8	16.6769
58.02	8.8566
58.24	14.8785
58.46	9.56963
58.68	10.3346
58.9	1.66652
59.12	3.43209
59.34	13.7287
59.56	9.8969
59.78	10.4609
60	25.7832
60.22	44.6681
60.44	31.3694
60.66	15.1672
60.88	18.0164
61.1	5.15507
61.32	8.29608
61.54	21.273
61.76	24.1734
61.98	17.1363
62.2	20.6427
62.42	8.91534
62.64	3.83372
62.86	2.68872
63.08	6.70898
63.3	6.80114
63.52	14.4291
63.74	17.4768
63.96	18.5602
64.18	16.8699
64.4	8.29543
64.62	0.175117
64.84	7.6547
65.06	14.8133
65.28	9.98545
65.5	9.00478
65.72	14.7527
65.94	3.0168
66.16	4.04086
66.38	12.4003
66.6	4.03665
66.82	0.027248
67.04	12.3748
67.26	6.84353
67.48	4.0207
67.7	7.22299
67.92	0.31212
68.14	3.43598
68.36	1.50144
68.58	7.32974
68.8	8.22995
69.02	1.2787
69.24	2.67419
69.46	2.43895
69.68	9.3631
69.9	5.27218
70.12	6.00307
70.34	3.56828
70.56	9.18319
70.78	0.713774
71	7.63788
71.22	13.3799
71.44	15.083
71.66	1.85946
71.88	10.5705
72.1	11.4946
72.32	8.74906
72.54	1.85655
72.76	4.33248
72.98	6.81039
73.2	16.2857
73.42	10.9466
73.64	20.2133
73.86	7.62343
74.08	6.08791
74.3	15.1046
74.52	13.2575
74.74	7.12527
74.96	5.40933
75.18	11.2638
75.4	10.821
75.62	12.1929
75.84	6.65728
76.06	23.86
76.28	8.20823
76.5	12.4986
76.72	12.9332
76.94	11.1273
77.16	4.22421
77.38	10.5582
77.6	5.75152
77.82	17.2944
78.04	9.19191
78.26	5.62151
78.48	12.9536
78.7	15.8043
78.92	5.596
79.14	10.2792
79.36	12.1829
79.58	6.77118
79.8	4.41009
80.02	1.75944
80.24	14.5866
80.46	9.83771
80.68	21.8777
80.9	1.2888
81.12	7.2909
81.34	3.22272
81.56	4.80767
81.78	6.7926
82	1.37537
82.22	11.5214
82.44	7.25568
82.66	13.0831
82.88	1.96957
83.1	11.8202
83.32	4.08944
83.54	9.07179
83.76	20.0915
83.98	4.33867
84.2	11.8425
84.42	7.09101
84.64	13.1186
84.86	2.56118
85.08	12.6253
85.3	14.9441
85.52	11.3698
85.74	17.2827
85.96	16.3127
86.18	15.1865
86.4	6.65313
86.62	0.635363
86.84	13.3856
87.06	9.48641
87.28	16.6044
87.5	4.66289
87.72	7.72792
87.94	0.253716
88.16	17.0011
88.38	10.1671
88.6	12.6403
88.82	12.2081
89.04	2.33192
89.26	8.73493
89.48	6.79588
89.7	19.0857
89.92	13.1944
