Measurement: Powder, Xray Data XY Processed
Mineral: Ludwigite
Rruff sample: R060010
Ideal chemistry: Mg_2_Fe^3+^O_2_(BO_3_)
Locality: Victoria Quarry, Riverside, California, USA
Source: University of Arizona Mineral Museum
Description: Black elongated prismatic crystals, associated with pale yellow clinohumite on white calcite matrix
Diffraction sample description: Powder
Measured chemistry: (Mg_1.68_Fe^2+^_0.32_)_Σ=2_(Fe^3+^_0.74_Al_0.23_Cr_0.03_)_Σ=1_O_5_ ; B not measured but estimated by difference and charge balance
Cell parameters: a: 9.2330(4) b: 12.254(1) c: 3.0200(2) alpha: 90 beta: 90 gamma: 90 volume: 341.69(4) crystal system: orthorhombic
x	intensity
5	0
5.22	7.889
5.44	14.884
5.66	22.756
5.88	30.276
6.1	0.292
6.32	15.516
6.54	13.328
6.76	33.517
6.98	21.266
7.2	27.718
7.42	4.446
7.64	12.421
7.86	18.087
8.08	43.419
8.3	30.278
8.52	15.935
8.74	14.991
8.96	11.329
9.18	33.07
9.4	38.52
9.62	20.733
9.84	9.936
10.06	5.429
10.28	20.332
10.5	14.191
10.72	2.846
10.94	4.127
11.16	5.77
11.38	17.235
11.6	7.136
11.82	33.004
12.04	32.635
12.26	3.857
12.48	38.099
12.7	0.495
12.92	44.662
13.14	12.145
13.36	2.871
13.58	28.912
13.8	37.777
14.02	16.012
14.24	15.407
14.46	25.858
14.68	17.443
14.9	2.015
15.12	13.197
15.34	3.283
15.56	1.78
15.78	19.223
16	22.184
16.22	8.094
16.44	6.04
16.66	2.196
16.88	16.25
17.1	7.636
17.32	28.844
17.54	44.055
17.76	13.55
17.98	10.307
18.2	8.938
18.42	3.385
18.64	40.017
18.86	22.045
19.08	23.181
19.3	16.988
19.52	10.165
19.74	12.042
19.96	15.641
20.18	25.703
20.4	18.681
20.62	13.162
20.84	25.831
21.06	11.351
21.28	15.301
21.5	20.897
21.72	11.643
21.94	5.828
22.16	25.824
22.38	23.532
22.6	14.751
22.82	5.571
23.04	17.46
23.26	28.69
23.48	18.104
23.7	32.721
23.92	15.01
24.14	19.387
24.36	7.322
24.58	16.516
24.8	19.69
25.02	20.094
25.24	22.856
25.46	2.523
25.68	39.313
25.9	12.29
26.12	15.19
26.34	0.039
26.56	34.764
26.78	24.255
27	12.575
27.22	6.427
27.44	22.854
27.66	36.416
27.88	14.855
28.1	12.497
28.32	16.385
28.54	19.941
28.76	3.847
28.98	4.626
29.2	1.525
29.42	15.438
29.64	62.511
29.86	34.866
30.08	40.608
30.3	8.246
30.52	25.654
30.74	19.615
30.96	3.508
31.18	28.254
31.4	40.458
31.62	23.471
31.84	26.847
32.06	9.184
32.28	34.358
32.5	44.846
32.72	14.789
32.94	17.234
33.16	31.352
33.38	19.916
33.6	25.231
33.82	5.544
34.04	9.792
34.26	9.374
34.48	11.054
34.7	20.484
34.92	25.954
35.14	101.207
35.36	32.998
35.58	96.907
35.8	41.292
36.02	15.312
36.24	21.588
36.46	37.199
36.68	24.204
36.9	18.64
37.12	1.056
37.34	1.214
37.56	0.918
37.78	10.092
38	21.128
38.22	36.4
38.44	20.286
38.66	2.998
38.88	8.298
39.1	13.58
39.32	17.38
39.54	18.82
39.76	26.202
39.98	2.708
40.2	20.836
40.42	4
40.64	3.881
40.86	2.872
41.08	17.275
41.3	1.386
41.52	4.206
41.74	66.201
41.96	32.242
42.18	13.551
42.4	40.266
42.62	40.949
42.84	19.454
43.06	7.507
43.28	34.608
43.5	21.314
43.72	29.948
43.94	12.171
44.16	17.721
44.38	23.813
44.6	41.708
44.82	18.363
45.04	17.676
45.26	31.578
45.48	29.464
45.7	19.395
45.92	28.642
46.14	1.483
46.36	11.681
46.58	19.25
46.8	14.463
47.02	24.891
47.24	16.416
47.46	7.544
47.68	42.303
47.9	22.622
48.12	20.98
48.34	3.428
48.56	13.741
48.78	4.894
49	0.939
49.22	20.256
49.44	23
49.66	9.577
49.88	21.589
50.1	10.616
50.32	17.374
50.54	19.966
50.76	42.352
50.98	36.15
51.2	13.033
51.42	7.205
51.64	21.089
51.86	7.961
52.08	29.2
52.3	25.747
52.52	9.505
52.74	38.88
52.96	5.129
53.18	2.991
53.4	10.162
53.62	11.507
53.84	9.491
54.06	13.797
54.28	36.531
54.5	5.209
54.72	11.177
54.94	30.664
55.16	27.801
55.38	0.111
55.6	6.346
55.82	14.275
56.04	20.127
56.26	19.007
56.48	16.157
56.7	4.748
56.92	9.006
57.14	34.724
57.36	15.628
57.58	12.182
57.8	24.227
58.02	27.896
58.24	19.24
58.46	46.578
58.68	36.43
58.9	8.668
59.12	9.445
59.34	21.62
59.56	8.459
59.78	29.344
60	18.431
60.22	26.649
60.44	20.157
60.66	15.552
60.88	2.722
61.1	7.737
61.32	60.239
61.54	25.878
61.76	30.575
61.98	1.031
62.2	29.338
62.42	21.114
62.64	25.421
62.86	13.895
63.08	12.219
63.3	20.602
63.52	13.138
63.74	0.618
63.96	10.792
64.18	26.476
64.4	27.572
64.62	15.636
64.84	16.634
65.06	23.34
65.28	24.749
65.5	32.359
65.72	24.297
65.94	21.955
66.16	19.601
66.38	22.814
66.6	12.396
66.82	14.974
67.04	20.086
67.26	28.356
67.48	38.908
67.7	1.795
67.92	13.95
68.14	38.64
68.36	27.325
68.58	12.13
68.8	8.475
69.02	12.779
69.24	28.829
69.46	5.672
69.68	11.625
69.9	35.22
70.12	6.019
70.34	14.191
70.56	5.069
70.78	38.106
71	13.467
71.22	15.088
71.44	29.541
71.66	19.466
71.88	10.372
72.1	5.594
72.32	52.064
72.54	13.786
72.76	13.838
72.98	14.888
73.2	25.994
73.42	3.105
73.64	9.301
73.86	1.361
74.08	36.782
74.3	21.071
74.52	2.621
74.74	32.577
74.96	39.09
75.18	6.59
75.4	29.591
75.62	32.035
75.84	13.129
76.06	23.444
76.28	12.98
76.5	16.894
76.72	24.001
76.94	33.118
77.16	9.746
77.38	14.251
77.6	10.621
77.82	30.251
78.04	2.921
78.26	24.282
78.48	29.57
78.7	26.12
78.92	21.126
79.14	29.699
79.36	12.706
79.58	30.277
79.8	26.907
80.02	11.886
80.24	20.939
80.46	9.989
80.68	28.605
80.9	9.138
81.12	40.029
81.34	5.803
81.56	18.518
81.78	26.487
82	22.714
82.22	10.007
82.44	38.701
82.66	14.398
82.88	23.632
83.1	2.47
83.32	27.463
83.54	18.234
83.76	24.574
83.98	14.818
84.2	33.526
84.42	15.944
84.64	9.005
84.86	6.363
85.08	16.962
85.3	21.792
85.52	36.724
85.74	6.204
85.96	26.111
86.18	8.128
86.4	18.336
86.62	17.545
86.84	19.072
87.06	8.133
87.28	26.923
87.5	23.881
87.72	20.176
87.94	24.441
88.16	29.437
88.38	10.204
88.6	8.675
88.82	7.09
89.04	19.804
89.26	12.655
89.48	0.011
89.7	33.435
89.92	23.016
