Measurement: Powder, Xray Data XY Processed
Mineral: Magadiite
Rruff sample: R060994
Ideal chemistry: Na_2_Si_14_O_29_11H_2_O
Locality: Trinity Lake, Trinity County, California, USA
Source: Bob Jenkins
Description: White compacted fine-grained silt
Diffraction sample description: Powder
x	intensity
5	0
5.22	12.4484
5.44	9.46415
5.66	21.0092
5.88	7.41412
6.1	24.6783
6.32	36.9345
6.54	49.5348
6.76	35.4201
6.98	40.7362
7.2	64.9044
7.42	64.6048
7.64	59.7491
7.86	34.6009
8.08	25.3114
8.3	3.53426
8.52	3.05552
8.74	1.56386
8.96	9.60606
9.18	7.27401
9.4	1.41133
9.62	6.19524
9.84	16.9131
10.06	2.97616
10.28	11.2822
10.5	6.58164
10.72	7.37844
10.94	3.14454
11.16	6.9997
11.38	2.61999
11.6	0.788844
11.82	9.80244
12.04	3.3167
12.26	7.0663
12.48	12.2484
12.7	11.6146
12.92	6.95546
13.14	9.16151
13.36	5.79052
13.58	9.66361
13.8	12.4566
14.02	6.99685
14.24	13.584
14.46	11.314
14.68	17.9016
14.9	0.57593
15.12	2.20623
15.34	2.66925
15.56	5.56116
15.78	2.77072
16	8.31526
16.22	16.3715
16.44	11.4643
16.66	9.49652
16.88	13.7631
17.1	4.8758
17.32	14.9814
17.54	9.42688
17.76	2.19524
17.98	9.5173
18.2	11.0638
18.42	28.0518
18.64	3.76369
18.86	6.29746
19.08	3.41032
19.3	11.0742
19.52	9.47138
19.74	45.7269
19.96	43.4961
20.18	41.2208
20.4	5.80977
20.62	10.251
20.84	16.4459
21.06	2.9767
21.28	16.071
21.5	32.8278
21.72	38.6202
21.94	47.8464
22.16	47.62
22.38	11.0287
22.6	9.60569
22.82	0.073868
23.04	3.26498
23.26	7.82059
23.48	9.48598
23.7	16.7267
23.92	9.5166
24.14	14.03
24.36	4.9962
24.58	14.17
24.8	15.8228
25.02	19.7375
25.24	11.1277
25.46	2.65909
25.68	7.15423
25.9	11.2658
26.12	9.75666
26.34	12.4591
26.56	10.3838
26.78	5.57886
27	15.8966
27.22	1.26283
27.44	5.02164
27.66	7.27978
27.88	28.4178
28.1	15.1377
28.32	15.2933
28.54	0.235085
28.76	13.2919
28.98	18.5571
29.2	8.03146
29.42	19.6181
29.64	9.4872
29.86	0.640896
30.08	12.2801
30.3	2.6696
30.52	17.0723
30.74	2.41291
30.96	12.6336
31.18	14.656
31.4	25.7411
31.62	8.40976
31.84	11.5432
32.06	9.61398
32.28	12.9023
32.5	12.1926
32.72	14.4422
32.94	10.4999
33.16	5.83915
33.38	6.89243
33.6	9.94785
33.82	3.63224
34.04	2.77185
34.26	8.22822
34.48	9.45138
34.7	2.77232
34.92	17.8353
35.14	15.2749
35.36	2.82727
35.58	16.1054
35.8	22.3022
36.02	13.9931
36.24	12.2508
36.46	10.5182
36.68	8.54784
36.9	6.35815
37.12	9.94034
37.34	16.9845
37.56	4.72932
37.78	2.42765
38	20.5924
38.22	2.24578
38.44	2.12556
38.66	15.9766
38.88	7.67338
39.1	16.4595
39.32	11.7453
39.54	7.0208
39.76	11.9338
39.98	7.36501
40.2	5.72513
40.42	0.544413
40.64	9.23844
40.86	18.7828
41.08	9.27264
41.3	13.8481
41.52	7.9268
41.74	9.37613
41.96	5.65701
42.18	4.14499
42.4	7.93852
42.62	8.64747
42.84	6.70919
43.06	15.013
43.28	16.515
43.5	11.3443
43.72	17.5158
43.94	4.57814
44.16	6.28499
44.38	16.3429
44.6	10.7568
44.82	10.46
45.04	5.80529
45.26	21.3245
45.48	8.64177
45.7	12.6285
45.92	2.5596
46.14	7.89835
46.36	12.3762
46.58	2.35556
46.8	6.00541
47.02	15.066
47.24	4.57938
47.46	16.1579
47.68	8.37017
47.9	5.06429
48.12	5.34441
48.34	6.37102
48.56	4.62859
48.78	11.1457
49	12.4934
49.22	11.0788
49.44	13.0924
49.66	13.0247
49.88	2.81877
50.1	7.04261
50.32	13.6853
50.54	6.96316
50.76	5.847
50.98	5.85453
51.2	8.74376
51.42	5.89973
51.64	6.01251
51.86	14.9561
52.08	2.02297
52.3	14.7927
52.52	2.12273
52.74	4.09113
52.96	7.73785
53.18	6.66347
53.4	4.51218
53.62	3.36433
53.84	13.9826
54.06	4.26892
54.28	9.26608
54.5	8.39738
54.72	6.34752
54.94	0.606271
55.16	5.4275
55.38	2.66772
55.6	0.730279
55.82	13.6583
56.04	21.9303
56.26	8.06106
56.48	0.198869
56.7	5.90523
56.92	7.7616
57.14	2.03631
57.36	13.1445
57.58	8.31389
57.8	7.46387
58.02	5.67625
58.24	11.9694
58.46	1.03833
58.68	6.09903
58.9	1.48493
59.12	12.6189
59.34	5.90205
59.56	0.120643
59.78	2.89694
60	14.6708
60.22	7.66209
60.44	8.4514
60.66	9.32338
60.88	4.08053
61.1	3.93544
61.32	2.52125
61.54	5.57916
61.76	5.32146
61.98	13.2175
62.2	7.69876
62.42	10.8929
62.64	3.40501
62.86	10.6809
63.08	3.06837
63.3	3.26851
63.52	6.41358
63.74	6.42019
63.96	3.5656
64.18	12.622
64.4	3.12212
64.62	6.08958
64.84	6.13346
65.06	5.75989
65.28	15.1407
65.5	0.639703
65.72	4.41731
65.94	12.6632
66.16	1.80724
66.38	5.94632
66.6	5.05562
66.82	0.027782
67.04	3.42877
67.26	11.4564
67.48	11.5511
67.7	14.1628
67.92	8.15133
68.14	4.95038
68.36	6.92529
68.58	11.0871
68.8	7.00393
69.02	9.11385
69.24	6.85124
69.46	1.01735
69.68	8.055
69.9	2.00255
70.12	5.02654
70.34	5.11618
70.56	11.1669
70.78	3.14809
71	9.42446
71.22	5.75684
71.44	8.69936
71.66	7.60282
71.88	11.5448
72.1	4.60184
72.32	12.9004
72.54	9.78257
72.76	0.417779
72.98	4.41553
73.2	20.3551
73.42	3.89241
73.64	8.79774
73.86	1.95714
74.08	0.979129
74.3	17.8787
74.52	9.73969
74.74	12.5512
74.96	11.7509
75.18	5.77158
75.4	7.9011
75.62	1.93768
75.84	7.25276
76.06	16.269
76.28	12.3643
76.5	3.39805
76.72	13.6197
76.94	8.5419
77.16	13.8342
77.38	16.8601
77.6	11.0089
77.82	9.11592
78.04	8.24104
78.26	12.6205
78.48	5.70497
78.7	6.50369
78.92	5.67411
79.14	13.6402
79.36	3.86442
79.58	3.69436
79.8	1.67961
80.02	5.85536
80.24	9.07484
80.46	2.04195
80.68	6.47143
80.9	6.30002
81.12	12.3038
81.34	1.23166
81.56	7.35439
81.78	4.20878
82	5.53986
82.22	10.4841
82.44	4.07683
82.66	4.85486
82.88	1.92179
83.1	4.84511
83.32	7.8761
83.54	5.96582
83.76	8.00722
83.98	9.09568
84.2	5.88885
84.42	7.90084
84.64	1.97483
84.86	4.21844
85.08	15.3783
85.3	3.59225
85.52	7.8124
85.74	5.81231
85.96	6.843
86.18	2.67541
86.4	8.61997
86.62	1.57294
86.84	9.66205
87.06	5.75561
87.28	8.76184
87.5	5.91678
87.72	8.8874
87.94	5.05314
88.16	0.739266
88.38	8.59098
88.6	8.00602
88.82	1.95672
89.04	15.2706
89.26	11.4356
89.48	10.6297
89.7	7.59291
89.92	3.35102
