Measurement: Powder, Xray Data XY Processed
Mineral: Magnetite
Rruff sample: R080025
Ideal chemistry: Fe^2+^Fe^3+^_2_O_4_
Locality: 2500' level, Zinc Corporation of America mine #4, Balmat, New York, USA
Source: William W. Pinch
Description: Black cubes
Diffraction sample description: Powder
Cell parameters: a: 8.3995(3) b: 8.3995(3) c: 8.3995(3) alpha: 90 beta: 90 gamma: 90 volume: 592.59(6) crystal system: cubic
x	intensity
5	0
5.22	17.7306
5.44	37.0883
5.66	32.1717
5.88	13.9067
6.1	28.856
6.32	17.0645
6.54	19.784
6.76	13.7275
6.98	40.454
7.2	44.0741
7.42	23.9224
7.64	41.2793
7.86	17.2903
8.08	34.4231
8.3	22.7789
8.52	11.4207
8.74	14.9407
8.96	37.3369
9.18	31.5524
9.4	27.3353
9.62	21.6245
9.84	14.8431
10.06	41.7785
10.28	13.4739
10.5	36.3844
10.72	14.604
10.94	30.6676
11.16	27.3702
11.38	10.0789
11.6	2.56833
11.82	39.4436
12.04	13.8216
12.26	34.161
12.48	12.6691
12.7	15.5044
12.92	28.7147
13.14	18.0592
13.36	36.023
13.58	8.61356
13.8	56.4176
14.02	33.8962
14.24	60.3466
14.46	54.7739
14.68	39.6356
14.9	7.27319
15.12	15.0884
15.34	22.8175
15.56	29.1812
15.78	5.14905
16	20.5578
16.22	15.902
16.44	4.58231
16.66	25.3941
16.88	30.2891
17.1	12.6679
17.32	19.1825
17.54	37.9403
17.76	29.6259
17.98	29.9388
18.2	55.8197
18.42	23.676
18.64	24.0386
18.86	20.5468
19.08	41.2367
19.3	36.1289
19.52	16.8383
19.74	52.4511
19.96	0.308029
20.18	11.9052
20.4	30.9844
20.62	52.4284
20.84	33.8373
21.06	35.5134
21.28	50.5399
21.5	12.9316
21.72	13.6111
21.94	43.2155
22.16	45.9345
22.38	9.94437
22.6	19.5195
22.82	42.6033
23.04	19.4573
23.26	18.3442
23.48	35.1753
23.7	7.1857
23.92	47.2017
24.14	17.76
24.36	45.0333
24.58	6.07829
24.8	25.5377
25.02	18.7241
25.24	29.715
25.46	34.0085
25.68	45.6877
25.9	16.9263
26.12	18.9766
26.34	44.3324
26.56	2.36136
26.78	20.0897
27	36.0012
27.22	7.26967
27.44	23.0581
27.66	45.1563
27.88	49.2282
28.1	8.84843
28.32	22.9869
28.54	30.3445
28.76	40.6991
28.98	4.19547
29.2	2.40274
29.42	12.4927
29.64	11.0545
29.86	30.5541
30.08	163.709
30.3	54.4035
30.52	30.7239
30.74	53.8863
30.96	20.2581
31.18	23.2486
31.4	14.3775
31.62	38.0819
31.84	33.6908
32.06	34.6626
32.28	24.4481
32.5	28.3315
32.72	12.7264
32.94	44.2195
33.16	29.9192
33.38	45.3021
33.6	0.142334
33.82	17.2848
34.04	18.2268
34.26	32.4948
34.48	18.5935
34.7	9.17734
34.92	2.10921
35.14	22.1683
35.36	228.05
35.58	174.51
35.8	19.7089
36.02	4.52667
36.24	48.876
36.46	42.5854
36.68	10.342
36.9	52.3471
37.12	55.2658
37.34	30.6451
37.56	14.2262
37.78	26.102
38	29.709
38.22	34.9936
38.44	41.8128
38.66	77.0019
38.88	9.98027
39.1	20.6269
39.32	47.9008
39.54	26.2077
39.76	33.535
39.98	27.035
40.2	17.042
40.42	22.7884
40.64	23.4798
40.86	48.593
41.08	40.2411
41.3	18.5444
41.52	25.1368
41.74	51.4199
41.96	60.4018
42.18	31.5477
42.4	41.7164
42.62	12.9165
42.84	18.9302
43.06	93.4248
43.28	46.1371
43.5	15.6427
43.72	31.4267
43.94	1.48381
44.16	22.2691
44.38	30.1797
44.6	5.44403
44.82	44.9382
45.04	28.6635
45.26	41.8554
45.48	21.0894
45.7	24.2076
45.92	20.008
46.14	62.1527
46.36	34.9023
46.58	29.9707
46.8	4.96695
47.02	16.4946
47.24	60.6292
47.46	26.3664
47.68	22.8657
47.9	18.1296
48.12	26.7447
48.34	13.0229
48.56	31.0136
48.78	30.8765
49	24.9264
49.22	40.2521
49.44	32.5949
49.66	26.2667
49.88	39.4271
50.1	6.92212
50.32	30.863
50.54	5.26309
50.76	67.9102
50.98	13.4028
51.2	24.6201
51.42	36.837
51.64	11.2693
51.86	41.9415
52.08	14.8472
52.3	20.1367
52.52	32.4133
52.74	7.48041
52.96	38.2006
53.18	24.2196
53.4	90.404
53.62	55.3934
53.84	1.13934
54.06	43.3651
54.28	13.2122
54.5	25.6756
54.72	47.887
54.94	38.8905
55.16	19.607
55.38	43.2551
55.6	9.39435
55.82	45.4994
56.04	29.6239
56.26	2.44456
56.48	37.0337
56.7	46.8857
56.92	83.5764
57.14	51.9637
57.36	51.733
57.58	25.4731
57.8	33.08
58.02	0.416626
58.24	14.0342
58.46	16.747
58.68	5.6918
58.9	27.942
59.12	28.1221
59.34	22.0934
59.56	44.5784
59.78	43.8654
60	25.3605
60.22	20.5942
60.44	40.3975
60.66	36.7069
60.88	17.3156
61.1	15.9521
61.32	7.98003
61.54	18.2419
61.76	31.6841
61.98	50.0375
62.2	46.8576
62.42	69.5699
62.64	81.4257
62.86	40.8123
63.08	30.6632
63.3	3.79935
63.52	45.0709
63.74	26.9656
63.96	1.16975
64.18	6.92699
64.4	39.6155
64.62	40.4559
64.84	21.2774
65.06	26.5786
65.28	24.6365
65.5	57.5804
65.72	17.3209
65.94	30.5387
66.16	37.4313
66.38	26.1264
66.6	28.074
66.82	43.2528
67.04	3.9948
67.26	14.4299
67.48	63.9448
67.7	52.4068
67.92	31.5133
68.14	29.4563
68.36	40.1847
68.58	47.4492
68.8	29.6653
69.02	17.2416
69.24	10.578
69.46	25.1812
69.68	40.8832
69.9	2.66244
70.12	26.3961
70.34	24.0049
70.56	6.44873
70.78	31.3859
71	58.8386
71.22	35.4985
71.44	30.6729
71.66	8.85895
71.88	31.9168
72.1	35.4317
72.32	12.571
72.54	15.384
72.76	17.1566
72.98	15.7616
73.2	12.8917
73.42	3.97589
73.64	34.9757
73.86	37.8397
74.08	29.8617
74.3	45.9646
74.52	34.4205
74.74	49.7985
74.96	29.6661
75.18	47.7187
75.4	21.1406
75.62	8.67215
75.84	6.36452
76.06	23.78
76.28	22.3002
76.5	42.6842
76.72	32.0143
76.94	12.3086
77.16	47.9145
77.38	18.1918
77.6	59.6634
77.82	64.4819
78.04	33.5166
78.26	6.15787
78.48	47.6114
78.7	30.2567
78.92	1.60893
79.14	18.7551
79.36	1.6079
79.58	19.4836
79.8	17.9907
80.02	18.1868
80.24	45.7398
80.46	40.6903
80.68	73.9261
80.9	28.5871
81.12	24.1169
81.34	35.2837
81.56	28.3951
81.78	3.02832
82	32.179
82.22	61.4044
82.44	16.3554
82.66	6.14572
82.88	18.5479
83.1	40.6288
83.32	17.3735
83.54	17.7555
83.76	40.7993
83.98	3.05405
84.2	25.2876
84.42	32.8023
84.64	21.9591
84.86	39.133
85.08	37.9842
85.3	49.6813
85.52	37.1568
85.74	29.2059
85.96	10.7923
86.18	20.9589
86.4	13.3286
86.62	38.0678
86.84	33.3691
87.06	41.8088
87.28	37.7293
87.5	10.8449
87.72	40.8958
87.94	37.3616
88.16	40.2701
88.38	55.9938
88.6	28.6933
88.82	38.3916
89.04	20.9254
89.26	24.147
89.48	41.0635
89.7	23.3762
89.92	4.71162
