Measurement: Powder, Xray Data XY Processed
Mineral: Magnesiocopiapite
Rruff sample: R060155
Ideal chemistry: MgFe^3+^_4_(S^6+^O_4_)_6_(OH)_2_20H_2_O
Locality: Denver mine, Santa Cruz County, Arizona, USA
Source: University of Arizona Mineral Museum
Description: Yellow fine-grained efflorescence
Diffraction sample description: Powder
Measured chemistry: (Mg_0.95_Mn_0.05_)_Σ=1_(Fe^3+^_3.56_Al_0.44_)_Σ=4_(S_1.00_O_4_)_6_(OH)_2_·17H_2_O ; H not measured but estimated by difference
Cell parameters: a: 7.358(6) b: 18.799(7) c: 7.386(5) alpha: 91.26(5) beta: 102.22(5) gamma: 98.83(3) volume: 985.1(0) crystal system: triclinic
x	intensity
5	0
5.22	10.6858
5.44	3.48537
5.66	23.5897
5.88	33.4876
6.1	11.0873
6.32	20.6963
6.54	29.5297
6.76	2.3367
6.98	16.2894
7.2	12.8256
7.42	13.7001
7.64	0.20182
7.86	6.91185
8.08	13.2782
8.3	15.2643
8.52	20.1545
8.74	13.9661
8.96	17.8883
9.18	5.78942
9.4	33.7468
9.62	140.146
9.84	13.767
10.06	14.5319
10.28	10.4239
10.5	9.38294
10.72	3.84866
10.94	7.09994
11.16	20.0907
11.38	3.28657
11.6	7.34562
11.82	6.47756
12.04	11.7343
12.26	15.9914
12.48	12.5623
12.7	27.7
12.92	7.22285
13.14	7.04685
13.36	15.8284
13.58	13.4812
13.8	3.68242
14.02	0.591499
14.24	24.2511
14.46	32.662
14.68	5.15269
14.9	2.81614
15.12	3.597
15.34	25.3259
15.56	17.9659
15.78	42.8617
16	19.5428
16.22	3.051
16.44	24.502
16.66	39.453
16.88	30.1465
17.1	3.34901
17.32	6.03379
17.54	23.2495
17.76	13.2799
17.98	22.2003
18.2	31.8075
18.42	14.4152
18.64	11.6417
18.86	20.9909
19.08	10.2122
19.3	32.5986
19.52	13.4812
19.74	5.98077
19.96	27.0186
20.18	14.6976
20.4	24.0313
20.62	31.933
20.84	18.2145
21.06	36.5565
21.28	16.1578
21.5	10.4964
21.72	20.3896
21.94	17.4717
22.16	35.0201
22.38	12.8508
22.6	6.32847
22.82	29.9588
23.04	12.941
23.26	4.87699
23.48	28.7286
23.7	8.25639
23.92	11.8026
24.14	28.4891
24.36	11.9287
24.58	0.560181
24.8	27.7396
25.02	8.84611
25.24	24.8074
25.46	68.1476
25.68	19.8957
25.9	0.889915
26.12	0.53614
26.34	1.54976
26.56	4.56134
26.78	23.704
27	6.83415
27.22	26.5977
27.44	17.5376
27.66	21.6212
27.88	6.55983
28.1	31.2486
28.32	4.04084
28.54	15.8793
28.76	22.0179
28.98	1.13229
29.2	22.0882
29.42	25.9536
29.64	16.2139
29.86	14.753
30.08	8.84843
30.3	0.713173
30.52	32.7276
30.74	7.26012
30.96	12.4916
31.18	16.3821
31.4	22.2861
31.62	33.191
31.84	8.63188
32.06	13.4922
32.28	20.7718
32.5	17.7127
32.72	3.15689
32.94	13.6642
33.16	1.54521
33.38	10.0407
33.6	12.3008
33.82	22.8635
34.04	21.1181
34.26	13.7529
34.48	7.01197
34.7	4.2153
34.92	27.3181
35.14	19.1519
35.36	30.1441
35.58	0.310093
35.8	22.8485
36.02	21.16
36.24	19.1416
36.46	13.6831
36.68	24.9157
36.9	14.0266
37.12	11.6716
37.34	17.1556
37.56	31.9249
37.78	2.96674
38	26.4645
38.22	18.2829
38.44	10.1935
38.66	15.498
38.88	23.7362
39.1	20.0684
39.32	38.4483
39.54	8.40325
39.76	6.00572
39.98	0.171082
40.2	19.9702
40.42	21.7312
40.64	16.6467
40.86	33.7565
41.08	8.61441
41.3	20.4633
41.52	26.5472
41.74	21.1383
41.96	43.288
42.18	12.2006
42.4	6.20894
42.62	17.3978
42.84	7.36837
43.06	14.4501
43.28	12.5064
43.5	5.87843
43.72	7.54275
43.94	14.9905
44.16	10.2487
44.38	7.77254
44.6	4.08741
44.82	11.4469
45.04	19.2644
45.26	29.0309
45.48	36.246
45.7	23.224
45.92	37.2238
46.14	13.1172
46.36	9.56802
46.58	11.5017
46.8	16.9148
47.02	4.15765
47.24	13.029
47.46	13.6355
47.68	11.7401
47.9	10.0998
48.12	3.02396
48.34	16.8613
48.56	4.82617
48.78	5.76025
49	18.582
49.22	22.3364
49.44	9.92438
49.66	17.3905
49.88	20.2333
50.1	9.75049
50.32	12.6762
50.54	8.11752
50.76	22.0926
50.98	13.8962
51.2	16.1339
51.42	24.1279
51.64	22.3794
51.86	14.3598
52.08	18.0966
52.3	2.02618
52.52	15.3777
52.74	12.5981
52.96	24.9283
53.18	29.0232
53.4	9.80664
53.62	26.7294
53.84	10.315
54.06	10.3849
54.28	24.484
54.5	15.0303
54.72	1.50188
54.94	11.86
55.16	29.9274
55.38	22.2932
55.6	8.47437
55.82	5.68011
56.04	5.77809
56.26	3.37566
56.48	0.468147
56.7	15.5058
56.92	18.7136
57.14	7.47433
57.36	0.781239
57.58	16.1499
57.8	6.69876
58.02	7.0294
58.24	8.8769
58.46	3.91709
58.68	18.7324
58.9	2.83173
59.12	9.15152
59.34	34.1943
59.56	12.2793
59.78	26.2786
60	16.4068
60.22	15.7497
60.44	12.7214
60.66	26.1531
60.88	7.79271
61.1	8.76422
61.32	19.9789
61.54	35.9023
61.76	6.6388
61.98	25.3997
62.2	18.7765
62.42	0.146221
62.64	16.874
62.86	8.66724
63.08	16.2196
63.3	1.81508
63.52	19.6456
63.74	7.45416
63.96	10.5485
64.18	16.7417
64.4	17.8776
64.62	8.38672
64.84	3.84257
65.06	7.977
65.28	17.2679
65.5	15.6417
65.72	17.2052
65.94	19.4493
66.16	22.4896
66.38	4.14663
66.6	12.5441
66.82	15.7979
67.04	18.654
67.26	13.9849
67.48	16.9881
67.7	1.85619
67.92	4.6131
68.14	20.8048
68.36	2.3141
68.58	19.1441
68.8	7.18234
69.02	13.7619
69.24	7.03648
69.46	8.44788
69.68	4.25029
69.9	15.4036
70.12	24.7494
70.34	13.0057
70.56	6.00315
70.78	1.3952
71	6.01778
71.22	8.07503
71.44	15.3462
71.66	11.3563
71.88	17.2681
72.1	19.3016
72.32	6.45051
72.54	19.132
72.76	2.915
72.98	5.8401
73.2	15.7393
73.42	3.8477
73.64	21.3757
73.86	6.23841
74.08	15.8964
74.3	16.8937
74.52	14.9428
74.74	14.3947
74.96	25.0233
75.18	20.0053
75.4	17.4542
75.62	3.16666
75.84	8.2665
76.06	18.47
76.28	0.358479
76.5	0.120392
76.72	15.8661
76.94	16.12
77.16	18.1162
77.38	21.9237
77.6	11.593
77.82	16.8122
78.04	17.9779
78.26	1.00576
78.48	18.8431
78.7	6.1759
78.92	14.1825
79.14	16.2544
79.36	10.1685
79.58	26.5109
79.8	21.6519
80.02	5.75043
80.24	18.5219
80.46	15.9063
80.68	10.1084
80.9	17.1767
81.12	11.8614
81.34	7.89423
81.56	6.54873
81.78	26.34
82	24.3011
82.22	17.0863
82.44	10.9314
82.66	5.87899
82.88	25.0721
83.1	5.17977
83.32	15.1552
83.54	7.68129
83.76	0.060528
83.98	13.6214
84.2	1.25941
84.42	6.75538
84.64	17.0173
84.86	9.28362
85.08	15.3583
85.3	9.10455
85.52	8.99085
85.74	23.2742
85.96	10.9358
86.18	13.2001
86.4	13.8109
86.62	6.89396
86.84	18.4107
87.06	14.5425
87.28	11.5282
87.5	7.46976
87.72	19.3916
87.94	3.35413
88.16	10.5302
88.38	16.6416
88.6	11.7363
88.82	22.4462
89.04	3.34748
89.26	3.48278
89.48	18.8568
89.7	8.69253
89.92	4.36001
