Measurement: Powder, Xray Data XY Processed
Mineral: Magnesite
Rruff sample: R050676
Ideal chemistry: MgCO_3_
Locality: Tyrol, Austria
Source: University of Arizona Mineral Museum
Description: Brown rhombohedral crystals
Diffraction sample description: Powder
Measured chemistry: (Mg_0.87_Fe^2+^_0.12_Ca_0.01_)_Î£=1_CO_3_; trace amounts of Mn and Cd; CO_2_ estimated by difference
Cell parameters: a: 4.64154(8) b: 4.64154(8) c: 15.0710(4) alpha: 90. beta: 90. gamma: 120. volume: 281.19(1) crystal system: hexagonal
x	intensity
5	0
5.22	2.244
5.44	26.067
5.66	8.82
5.88	6.381
6.1	5.19
6.32	21.556
6.54	11.766
6.76	19.276
6.98	9.449
7.2	34.862
7.42	16.225
7.64	37.838
7.86	2.431
8.08	26.242
8.3	13.082
8.52	1.854
8.74	4.463
8.96	18.549
9.18	18.114
9.4	28.101
9.62	10.797
9.84	26.095
10.06	17.623
10.28	2.566
10.5	22.94
10.72	16.956
10.94	14.124
11.16	30.061
11.38	0.543
11.6	5.179
11.82	6.239
12.04	11.937
12.26	19
12.48	6.893
12.7	3.1
12.92	26.677
13.14	5.961
13.36	0.115
13.58	17.315
13.8	16.533
14.02	3.772
14.24	19.99
14.46	20.473
14.68	4.565
14.9	7.247
15.12	19.884
15.34	16.467
15.56	4.789
15.78	10.555
16	32.733
16.22	13.99
16.44	11.982
16.66	10.912
16.88	26.037
17.1	14.994
17.32	5.733
17.54	21.264
17.76	11.299
17.98	14.261
18.2	17.374
18.42	0.497
18.64	4.387
18.86	22.851
19.08	7.976
19.3	10.706
19.52	10.215
19.74	16.492
19.96	11.683
20.18	16.927
20.4	26.497
20.62	14.016
20.84	35.666
21.06	25.216
21.28	1.973
21.5	11.145
21.72	18.3
21.94	32.341
22.16	10.076
22.38	9.322
22.6	11.695
22.82	26.645
23.04	22.157
23.26	5.714
23.48	13.006
23.7	21.068
23.92	11.577
24.14	2.433
24.36	2.498
24.58	28.919
24.8	16.943
25.02	25.043
25.24	23.751
25.46	23.625
25.68	6.727
25.9	22.942
26.12	1.81
26.34	18.059
26.56	23.045
26.78	14.432
27	8.344
27.22	14.923
27.44	11.423
27.66	13.782
27.88	9.042
28.1	27.969
28.32	7.007
28.54	5.098
28.76	3.963
28.98	0.962
29.2	0.423
29.42	12.703
29.64	24.476
29.86	2.159
30.08	14.082
30.3	15.23
30.52	2.096
30.74	23.834
30.96	20.798
31.18	17.646
31.4	1.76
31.62	34.451
31.84	1.042
32.06	9.358
32.28	57.394
32.5	696.876
32.72	152.626
32.94	31.643
33.16	16.133
33.38	15.733
33.6	14.196
33.82	7.981
34.04	21.39
34.26	21.678
34.48	17.36
34.7	30.232
34.92	8.857
35.14	14.391
35.36	21.113
35.58	36.686
35.8	105.949
36.02	18.374
36.24	12.191
36.46	13.418
36.68	30.26
36.9	9.23
37.12	12.499
37.34	4.572
37.56	10.635
37.78	22.59
38	21.533
38.22	24.91
38.44	16.719
38.66	36.218
38.88	46.557
39.1	15.065
39.32	14.372
39.54	13.576
39.76	25.366
39.98	21.849
40.2	7.285
40.42	17.541
40.64	25.367
40.86	24.747
41.08	34.711
41.3	2.891
41.52	10.182
41.74	25.417
41.96	16.46
42.18	17.174
42.4	14.756
42.62	32.668
42.84	140.002
43.06	106.558
43.28	14.503
43.5	12.45
43.72	21.048
43.94	13.155
44.16	15.944
44.38	13.127
44.6	15.785
44.82	21.924
45.04	4.136
45.26	24.245
45.48	21.258
45.7	16.117
45.92	8.549
46.14	7.923
46.36	8.714
46.58	28.942
46.8	73.556
47.02	5.9
47.24	22.167
47.46	28.964
47.68	19.181
47.9	27.315
48.12	26.823
48.34	12.947
48.56	28.767
48.78	13.881
49	13.039
49.22	18.766
49.44	4.686
49.66	33.456
49.88	20.678
50.1	10.865
50.32	23.458
50.54	1.013
50.76	10.341
50.98	21.856
51.2	16.147
51.42	32.101
51.64	36.963
51.86	21.672
52.08	0.732
52.3	6.996
52.52	6.132
52.74	13.953
52.96	15.826
53.18	3.994
53.4	21.991
53.62	115.186
53.84	229.502
54.06	10.845
54.28	16.645
54.5	13.526
54.72	12.499
54.94	13.471
55.16	5.333
55.38	16.041
55.6	18.392
55.82	26.024
56.04	4.457
56.26	10.684
56.48	8.876
56.7	8.002
56.92	7.469
57.14	15.123
57.36	8.864
57.58	14.299
57.8	20.415
58.02	17.45
58.24	10.964
58.46	16.65
58.68	14.525
58.9	16.814
59.12	13.613
59.34	7.812
59.56	38.558
59.78	7.237
60	9.126
60.22	17.843
60.44	11.656
60.66	9.49
60.88	7.589
61.1	33.126
61.32	25.618
61.54	13.258
61.76	10.691
61.98	15.559
62.2	16.613
62.42	37.962
62.64	23.094
62.86	9.657
63.08	7.182
63.3	13.628
63.52	22.264
63.74	1.797
63.96	12.508
64.18	24.676
64.4	12.022
64.62	18.528
64.84	21.55
65.06	16.453
65.28	29.936
65.5	10.2
65.72	21.101
65.94	32.974
66.16	31.088
66.38	41.783
66.6	16.473
66.82	0.996
67.04	6.385
67.26	22.13
67.48	15.152
67.7	12.334
67.92	10.051
68.14	30.475
68.36	34.639
68.58	7.271
68.8	21.531
69.02	43.298
69.24	31.484
69.46	2.87
69.68	10.907
69.9	19.126
70.12	40.049
70.34	28.112
70.56	22.141
70.78	17.009
71	15.038
71.22	17.309
71.44	17.146
71.66	18.854
71.88	22.687
72.1	15.659
72.32	7.164
72.54	27.424
72.76	4.669
72.98	18.504
73.2	17.869
73.42	6.042
73.64	29.564
73.86	10.655
74.08	36.811
74.3	16.745
74.52	18.782
74.74	14.974
74.96	10.337
75.18	14.257
75.4	12.663
75.62	57.231
75.84	16.475
76.06	4.711
76.28	6.146
76.5	13.188
76.72	2.192
76.94	10.404
77.16	6.658
77.38	0.792
77.6	4.25
77.82	17.382
78.04	24.838
78.26	29.095
78.48	15.847
78.7	16.859
78.92	13.068
79.14	10.365
79.36	15.242
79.58	26.988
79.8	20.934
80.02	8.554
80.24	3.61
80.46	7.671
80.68	20.564
80.9	27.775
81.12	4.99
81.34	31.449
81.56	24.601
81.78	1.141
82	10.016
82.22	18.219
82.44	12.551
82.66	19.321
82.88	16.641
83.1	21.984
83.32	45.097
83.54	18.439
83.76	6.829
83.98	5.824
84.2	20.872
84.42	6.573
84.64	12.662
84.86	13.057
85.08	14.564
85.3	4.074
85.52	10.152
85.74	5.178
85.96	8.153
86.18	11.892
86.4	9.92
86.62	5.909
86.84	11.84
87.06	5.186
87.28	0.24
87.5	27.921
87.72	12.428
87.94	1.577
88.16	18.968
88.38	27.007
88.6	25.972
88.82	25.142
89.04	24.002
89.26	6.601
89.48	1.244
89.7	19.33
89.92	26.426
