Measurement: Powder, Xray Data XY Processed
Mineral: Magnetoplumbite
Rruff sample: R060074
Ideal chemistry: Pb^2+^Fe^3+^_12_O_19_
Locality: Langban, Filipstad, Varmland, Sweden
Source: University of Arizona Mineral Museum
Description: Black granular and massive
Diffraction sample description: Powder
Measured chemistry: Pb_1.00_(Fe^3+^_7.48_Mn^3+^_3.09_Ti_0.60_Mn^2+^_0.48_Al_0.23_Zn_0.12_)_Î£=12_O_19_
Cell parameters: a: 5.9074(3) b: 5.9074(3) c: 23.042(2) alpha: 90. beta: 90. gamma: 120. volume: 696.39(8) crystal system: hexagonal
x	intensity
5	0
5.22	4.336
5.44	5.781
5.66	17.415
5.88	6.411
6.1	0.92
6.32	11.8
6.54	13.15
6.76	11.213
6.98	15.508
7.2	14.7
7.42	7.645
7.64	10.184
7.86	7.675
8.08	2.28
8.3	11.724
8.52	7.501
8.74	15.144
8.96	12.239
9.18	9.166
9.4	4.792
9.62	9.021
9.84	16.347
10.06	10.334
10.28	12.434
10.5	10.553
10.72	6.852
10.94	9.866
11.16	15.689
11.38	7.344
11.6	9.645
11.82	13.427
12.04	14.703
12.26	7.9
12.48	6.855
12.7	3.081
12.92	3.867
13.14	13.978
13.36	10.482
13.58	7.509
13.8	10.634
14.02	5.638
14.24	7.792
14.46	15.241
14.68	9.165
14.9	5.214
15.12	15.499
15.34	3.746
15.56	13.779
15.78	0.111
16	7.894
16.22	6.165
16.44	8.06
16.66	2.751
16.88	1.558
17.1	2.71
17.32	0.799
17.54	6.574
17.76	4.517
17.98	4.478
18.2	2.69
18.42	11.949
18.64	7.779
18.86	10.731
19.08	10.712
19.3	11.658
19.52	19.551
19.74	11.39
19.96	10.313
20.18	5.232
20.4	5.159
20.62	4.961
20.84	5.815
21.06	10.672
21.28	0.877
21.5	1.882
21.72	8.567
21.94	10.325
22.16	11.234
22.38	7.813
22.6	3.805
22.82	6.614
23.04	3.891
23.26	19.93
23.48	13.809
23.7	12.371
23.92	4.646
24.14	11.675
24.36	3.618
24.58	3.908
24.8	4.093
25.02	7.88
25.24	7.755
25.46	9.372
25.68	2.066
25.9	0.752
26.12	20.847
26.34	16.517
26.56	15.237
26.78	7.909
27	4.637
27.22	6.282
27.44	4.328
27.66	3.224
27.88	4.434
28.1	3.602
28.32	10.124
28.54	16.692
28.76	4.607
28.98	3.59
29.2	10.241
29.42	7.968
29.64	4.673
29.86	5.323
30.08	1.987
30.3	22.976
30.52	12.043
30.74	5.724
30.96	18.834
31.18	15.53
31.4	7.43
31.62	5.535
31.84	4.074
32.06	13.563
32.28	8.567
32.5	28.262
32.72	16.358
32.94	11.065
33.16	2.569
33.38	10.213
33.6	5.363
33.82	7.307
34.04	6.235
34.26	46.754
34.48	0.739
34.7	14.172
34.92	7.803
35.14	18.3
35.36	7.287
35.58	9.34
35.8	17.69
36.02	18.452
36.24	4.695
36.46	5.917
36.68	0.201
36.9	12.987
37.12	27.978
37.34	14.078
37.56	11.86
37.78	9.989
38	18.539
38.22	11.036
38.44	2.047
38.66	3.339
38.88	2.468
39.1	14.157
39.32	0.344
39.54	15.079
39.76	17.575
39.98	3.13
40.2	12.69
40.42	32.067
40.64	9.321
40.86	9.255
41.08	1.985
41.3	0.677
41.52	14.65
41.74	8.638
41.96	0.462
42.18	4.493
42.4	2.229
42.62	15.215
42.84	7.95
43.06	8.422
43.28	1.401
43.5	5.334
43.72	8.697
43.94	10.79
44.16	8.189
44.38	13.776
44.6	16.805
44.82	10.007
45.04	10.941
45.26	3.281
45.48	13.364
45.7	13.013
45.92	15.871
46.14	6.322
46.36	15.253
46.58	17.72
46.8	5.489
47.02	8.539
47.24	16.581
47.46	16.847
47.68	22.374
47.9	5.739
48.12	3.917
48.34	7.944
48.56	6.077
48.78	7.033
49	15.976
49.22	0.321
49.44	0.872
49.66	13.878
49.88	3.525
50.1	0.647
50.32	14.162
50.54	4.867
50.76	12.375
50.98	12.151
51.2	3.841
51.42	13.792
51.64	14.56
51.86	12.593
52.08	9.439
52.3	4.12
52.52	17.512
52.74	4.997
52.96	8.544
53.18	13.422
53.4	12.167
53.62	16.725
53.84	16.05
54.06	6.73
54.28	6.175
54.5	4.907
54.72	3.728
54.94	7.365
55.16	26.907
55.38	7.735
55.6	6.405
55.82	8.547
56.04	5.528
56.26	17.39
56.48	4.38
56.7	20.63
56.92	27.411
57.14	15.335
57.36	4.004
57.58	3.026
57.8	5.326
58.02	0.115
58.24	7.665
58.46	11.636
58.68	6.327
58.9	6.542
59.12	15.719
59.34	18.652
59.56	2.376
59.78	13.822
60	29.338
60.22	12.095
60.44	20.804
60.66	4.136
60.88	21.312
61.1	2.758
61.32	15.359
61.54	26.103
61.76	22.09
61.98	1.614
62.2	17.119
62.42	0.698
62.64	14.71
62.86	11.554
63.08	4.499
63.3	18.178
63.52	3.251
63.74	16.26
63.96	13.725
64.18	4.382
64.4	18.03
64.62	6.05
64.84	3.379
65.06	13.905
65.28	14.992
65.5	4.36
65.72	16.54
65.94	24.95
66.16	7.68
66.38	12.104
66.6	13.164
66.82	1.687
67.04	20.687
67.26	4.576
67.48	6.413
67.7	21.617
67.92	19.32
68.14	2.255
68.36	13.685
68.58	14.247
68.8	8.32
69.02	19.42
69.24	13.514
69.46	13.881
69.68	9.824
69.9	11.971
70.12	12.819
70.34	23.554
70.56	4.641
70.78	3.094
71	12.356
71.22	8.896
71.44	12.419
71.66	7.737
71.88	0.036
72.1	21.095
72.32	10.99
72.54	5.7
72.76	3.564
72.98	13.367
73.2	6.805
73.42	13.937
73.64	20.944
73.86	10.56
74.08	21.751
74.3	19.905
74.52	5.769
74.74	6.109
74.96	6.144
75.18	8.104
75.4	13.458
75.62	12.107
75.84	8.159
76.06	20.158
76.28	13.952
76.5	27.725
76.72	19.68
76.94	8.305
77.16	18.318
77.38	13.104
77.6	2.319
77.82	25.196
78.04	14.913
78.26	10.621
78.48	0.645
78.7	6.173
78.92	2.544
79.14	8.646
79.36	8.797
79.58	11.794
79.8	13.239
80.02	19.683
80.24	13.588
80.46	9.194
80.68	8.706
80.9	18.445
81.12	21.365
81.34	18.858
81.56	5.361
81.78	18.591
82	7.926
82.22	16.364
82.44	4.284
82.66	18.18
82.88	6.487
83.1	15.504
83.32	10.944
83.54	26.019
83.76	12.904
83.98	14.013
84.2	12.703
84.42	19.258
84.64	14.27
84.86	24.949
85.08	11.537
85.3	12.774
85.52	11.495
85.74	7.906
85.96	13.827
86.18	17.165
86.4	8.804
86.62	16.061
86.84	24.758
87.06	17.576
87.28	15.147
87.5	13.973
87.72	7.334
87.94	22.028
88.16	1.902
88.38	1.848
88.6	13.623
88.82	26.197
89.04	18.183
89.26	8.347
89.48	21.473
89.7	15.136
89.92	17.99
