Measurement: Powder, Xray Data XY Processed
Mineral: Magnesio-fluoro-arfvedsonite
Rruff sample: R050515
Ideal chemistry: NaNa_2_(Mg_4_Fe^3+^)Si_8_O_22_F_2_
Locality: unknown
Source: Frank Hawthorne
Description: Numerous small dark green fragments
Diffraction sample description: Powder
Measured chemistry: (Na_0.48_K_0.20_[box]_0.32_)(Na_1.50_Ca_0.50_)_Σ=2_(Mg_2.05_Fe^2+^_1.45_Mn_0.50_)_Σ=4_(Fe^3+^_0.80_Mn_0.05_Al_0.10_Ti_0.05_)(Si_0.97_Al_0.03_)_8_O_22_(F_0.65_(OH)_0.35_)_2_
Cell parameters: a: 9.841(2) b: 18.047(7) c: 5.303(1) alpha: 90 beta: 104.13(3) gamma: 90 volume: 913.2(0) crystal system: monoclinic
x	intensity
5	0
5.22	0.001
5.44	9.578
5.66	17.709
5.88	29.99
6.1	13.027
6.32	0.019
6.54	13.21
6.76	17.284
6.98	10.474
7.2	21.362
7.42	18.283
7.64	28.793
7.86	12.478
8.08	12.429
8.3	7.223
8.52	9.659
8.74	23.664
8.96	3.289
9.18	7.828
9.4	13.514
9.62	5.796
9.84	24.294
10.06	12.457
10.28	18.13
10.5	211.848
10.72	5.389
10.94	3.729
11.16	6.654
11.38	0.049
11.6	9.96
11.82	25.614
12.04	7.363
12.26	20.337
12.48	6.753
12.7	24.758
12.92	22.06
13.14	8.885
13.36	7.753
13.58	6.431
13.8	11.012
14.02	1.329
14.24	9.126
14.46	13.621
14.68	18.631
14.9	12.732
15.12	8.579
15.34	24.052
15.56	17.758
15.78	23.759
16	4.253
16.22	25.489
16.44	21.702
16.66	17.464
16.88	9.133
17.1	2.789
17.32	0.683
17.54	12.63
17.76	6.715
17.98	12.338
18.2	12.053
18.42	5.373
18.64	0.771
18.86	10.277
19.08	15.356
19.3	5.453
19.52	27.675
19.74	30.932
19.96	27.753
20.18	14.813
20.4	11.866
20.62	16.948
20.84	28.932
21.06	7.671
21.28	24.849
21.5	9.176
21.72	14.968
21.94	31.867
22.16	11.961
22.38	6.387
22.6	16.3
22.82	21.575
23.04	11.884
23.26	11.798
23.48	0.003
23.7	16.022
23.92	2.857
24.14	20.278
24.36	32.416
24.58	13.145
24.8	4.942
25.02	13.272
25.24	8.133
25.46	7.622
25.68	21.666
25.9	6.739
26.12	35.385
26.34	14.541
26.56	6.813
26.78	0.591
27	3.104
27.22	37.914
27.44	23.925
27.66	2.254
27.88	9.991
28.1	12.064
28.32	31.545
28.54	86.314
28.76	26.043
28.98	6.727
29.2	13.118
29.42	5.508
29.64	5.035
29.86	25.54
30.08	32.157
30.3	5.789
30.52	7.599
30.74	5.077
30.96	14.632
31.18	32.409
31.4	21.072
31.62	14.717
31.84	48.665
32.06	15.629
32.28	10.392
32.5	7.464
32.72	35.337
32.94	70.098
33.16	36.483
33.38	5.19
33.6	0.965
33.82	15.545
34.04	4.602
34.26	25.965
34.48	13.217
34.7	27.69
34.92	10.65
35.14	24.236
35.36	50.341
35.58	32.846
35.8	6.937
36.02	7.458
36.24	2.236
36.46	10.081
36.68	18.374
36.9	3.543
37.12	15.619
37.34	13.456
37.56	9.732
37.78	9.126
38	13.679
38.22	7.977
38.44	18.487
38.66	38.067
38.88	7.585
39.1	1.916
39.32	10.46
39.54	19.01
39.76	16.393
39.98	28.807
40.2	15.317
40.42	6.493
40.64	6.783
40.86	12.142
41.08	17.917
41.3	12.552
41.52	10.784
41.74	3.369
41.96	2.163
42.18	6.164
42.4	21.097
42.62	4.516
42.84	11.597
43.06	10.706
43.28	8.493
43.5	6.695
43.72	19.492
43.94	4.672
44.16	1.246
44.38	10.433
44.6	20.564
44.82	11.486
45.04	12.848
45.26	25.092
45.48	9.832
45.7	16.512
45.92	28.731
46.14	8.995
46.36	16.646
46.58	13.676
46.8	27.07
47.02	22.274
47.24	3.726
47.46	26.039
47.68	20.76
47.9	8.126
48.12	13.193
48.34	21.391
48.56	15.786
48.78	24.516
49	20.123
49.22	28.816
49.44	22.157
49.66	3.62
49.88	6.324
50.1	12.724
50.32	21.772
50.54	18.092
50.76	12.188
50.98	20.14
51.2	10.615
51.42	26.941
51.64	4.643
51.86	33.073
52.08	30.368
52.3	12.317
52.52	23.818
52.74	16.046
52.96	12.76
53.18	12.928
53.4	12.625
53.62	7.953
53.84	12.182
54.06	14.729
54.28	14.549
54.5	24.183
54.72	26.003
54.94	13.284
55.16	16.574
55.38	27.455
55.6	18.646
55.82	8.137
56.04	8.631
56.26	8.272
56.48	7.799
56.7	12
56.92	1.277
57.14	0.737
57.36	10.918
57.58	13.438
57.8	10.769
58.02	14.476
58.24	24.284
58.46	10.459
58.68	12.811
58.9	2.574
59.12	25.439
59.34	10.455
59.56	9.774
59.78	5.657
60	15.147
60.22	6.186
60.44	15.455
60.66	17.978
60.88	31.059
61.1	5.503
61.32	6.115
61.54	20.484
61.76	14.736
61.98	19.978
62.2	16.152
62.42	9.763
62.64	6.836
62.86	21.662
63.08	14.753
63.3	13.277
63.52	21.234
63.74	22.639
63.96	30.457
64.18	18.288
64.4	21.72
64.62	8.6
64.84	12.158
65.06	33.358
65.28	9.642
65.5	20.067
65.72	10.82
65.94	25.312
66.16	23.765
66.38	2.246
66.6	8.767
66.82	5.449
67.04	17.675
67.26	27.773
67.48	21.054
67.7	25.177
67.92	2.119
68.14	28.238
68.36	3.601
68.58	12.276
68.8	12.997
69.02	2.728
69.24	5.848
69.46	13.172
69.68	17.757
69.9	22.271
70.12	34.301
70.34	5.454
70.56	1.658
70.78	8.428
71	9.741
71.22	8.849
71.44	8.363
71.66	29.398
71.88	31.535
72.1	8.698
72.32	19.797
72.54	8.792
72.76	30.08
72.98	3.668
73.2	26.107
73.42	29.424
73.64	5.989
73.86	18.13
74.08	2.022
74.3	7.758
74.52	17.695
74.74	16.537
74.96	17.567
75.18	6.839
75.4	0.123
75.62	14.806
75.84	22.827
76.06	11.765
76.28	19.829
76.5	0.308
76.72	3.258
76.94	12.997
77.16	11.38
77.38	4.4
77.6	1.518
77.82	7.673
78.04	19.876
78.26	30.742
78.48	24.487
78.7	13.207
78.92	0.852
79.14	0.988
79.36	14.811
79.58	18.955
79.8	18.416
80.02	11.334
80.24	12.59
80.46	15.651
80.68	12.74
80.9	12.545
81.12	10.155
81.34	20.8
81.56	22.287
81.78	14.401
82	12.63
82.22	3.022
82.44	27.343
82.66	25.553
82.88	10.9
83.1	2.372
83.32	13.26
83.54	21.049
83.76	6.207
83.98	1.809
84.2	11.421
84.42	5.441
84.64	7.613
84.86	3.538
85.08	0.931
85.3	21.792
85.52	12.2
85.74	25.105
85.96	10.941
86.18	2.3
86.4	19.494
86.62	9.362
86.84	15.196
87.06	22.003
87.28	12.163
87.5	22.833
87.72	0.449
87.94	15.966
88.16	6.347
88.38	20.366
88.6	4.962
88.82	18.796
89.04	32.551
89.26	25.556
89.48	19.765
89.7	11.682
89.92	12.519
