Measurement: Powder, Xray Data XY Processed
Mineral: Magnetite
Rruff sample: R060656
Ideal chemistry: Fe^2+^Fe^3+^_2_O_4_
Locality: Jacupiranga Pegmatite, Sao Paulo State, Brazil
Source: Michael Scott
Description: Black rounded octahedra associated with phlogopite and diopside
Diffraction sample description: Powder
Measured chemistry: (Fe^2+^_0.98_Mg_0.01_Mn_0.01_)(Fe^3+^_1.96_Ti_0.02_Mg_0.02_)O_4_
Cell parameters: a: 8.4003(1) b: 8.4003(1) c: 8.4003(1) alpha: 90. beta: 90. gamma: 90. volume: 592.78(3) crystal system: cubic
x	intensity
5	0
5.22	15.6511
5.44	30.6012
5.66	16.9029
5.88	36.7566
6.1	5.94841
6.32	12.7887
6.54	0.70282
6.76	9.09706
6.98	18.1402
7.2	1.40354
7.42	32.7433
7.64	15.5186
7.86	21.5332
8.08	13.1015
8.3	18.2551
8.52	4.53955
8.74	3.95614
8.96	7.2548
9.18	22.6642
9.4	23.4016
9.62	8.3299
9.84	17.5753
10.06	10.3228
10.28	13.1433
10.5	17.7735
10.72	5.44758
10.94	23.8947
11.16	20.4323
11.38	16.1418
11.6	14.7769
11.82	19.8293
12.04	16.7982
12.26	15.8752
12.48	31.4898
12.7	19.994
12.92	26.8494
13.14	29.032
13.36	26.5009
13.58	10.6933
13.8	38.5186
14.02	11.3047
14.24	19.8243
14.46	10.7096
14.68	12.0059
14.9	29.2
15.12	8.42712
15.34	13.5573
15.56	10.2045
15.78	14.9455
16	3.23946
16.22	6.68002
16.44	13.4653
16.66	5.42899
16.88	7.51708
17.1	0.515205
17.32	20.728
17.54	23.1898
17.76	8.64924
17.98	19.2193
18.2	21.102
18.42	32.0092
18.64	21.4034
18.86	15.7674
19.08	27.2956
19.3	18.0024
19.52	13.6359
19.74	13.5224
19.96	21.7575
20.18	24.2289
20.4	4.96858
20.62	14.6959
20.84	4.83535
21.06	13.7871
21.28	10.2646
21.5	2.46471
21.72	30.2053
21.94	8.92201
22.16	3.44181
22.38	15.1893
22.6	7.19009
22.82	23.8731
23.04	1.5721
23.26	11.9692
23.48	1.97109
23.7	27.0549
23.92	16.0639
24.14	18.5915
24.36	9.28384
24.58	5.7366
24.8	7.26359
25.02	11.9876
25.24	21.041
25.46	36.3146
25.68	7.94292
25.9	23.3
26.12	9.75827
26.34	22.5516
26.56	30.1024
26.78	3.18118
27	19.5688
27.22	5.21851
27.44	22.3697
27.66	15.2312
27.88	24.6063
28.1	29.2412
28.32	11.1583
28.54	14.055
28.76	8.22846
28.98	7.08988
29.2	16.4643
29.42	3.46491
29.64	3.5894
29.86	19.9309
30.08	30.8593
30.3	22.9874
30.52	24.555
30.74	15.4287
30.96	22.5547
31.18	15.3602
31.4	3.44525
31.62	9.7042
31.84	21.8189
32.06	8.42715
32.28	17.4862
32.5	2.02689
32.72	8.81677
32.94	6.67801
33.16	22.1748
33.38	2.26497
33.6	16.4798
33.82	10.8082
34.04	0.669266
34.26	13.0207
34.48	11.776
34.7	22.2113
34.92	10.9675
35.14	21.0102
35.36	50.2161
35.58	125.1
35.8	38.226
36.02	10.0109
36.24	15.5224
36.46	7.64611
36.68	33.0005
36.9	11.8538
37.12	39.9307
37.34	24.7474
37.56	27.0888
37.78	13.5821
38	34.8985
38.22	17.5446
38.44	2.06978
38.66	2.37575
38.88	16.561
39.1	33.6707
39.32	17.7181
39.54	19.4597
39.76	35.7415
39.98	1.44784
40.2	21.5508
40.42	21.2843
40.64	26.1611
40.86	17.0687
41.08	22.5159
41.3	0.96254
41.52	5.37861
41.74	7.18088
41.96	9.96784
42.18	14.7345
42.4	7.75192
42.62	7.8596
42.84	4.94506
43.06	36.0498
43.28	30.2467
43.5	25.4709
43.72	12.9109
43.94	19.1386
44.16	29.5485
44.38	7.87907
44.6	6.27351
44.82	28.091
45.04	21.3654
45.26	1.26305
45.48	38.0668
45.7	37.57
45.92	43.3857
46.14	7.22424
46.36	4.76107
46.58	35.9494
46.8	28.6921
47.02	41.721
47.24	19.3815
47.46	13.9064
47.68	8.48686
47.9	12.6095
48.12	13.7059
48.34	7.58091
48.56	20.4085
48.78	10.4311
49	8.46506
49.22	26.4419
49.44	4.32124
49.66	10.0771
49.88	11.0173
50.1	11.2772
50.32	14.4105
50.54	17.9036
50.76	5.7389
50.98	6.47665
51.2	13.2701
51.42	15.8328
51.64	18.4247
51.86	35.6717
52.08	12.2812
52.3	6.02477
52.52	11.3133
52.74	24.5085
52.96	16.8397
53.18	3.55489
53.4	34.3035
53.62	19.8866
53.84	18.1106
54.06	31.2113
54.28	24.3053
54.5	15.4669
54.72	10.3188
54.94	7.45903
55.16	17.4232
55.38	17.2525
55.6	10.4593
55.82	16.5772
56.04	14.1714
56.26	8.72803
56.48	20.7458
56.7	23.0118
56.92	63.9104
57.14	47.3706
57.36	28.5324
57.58	9.75461
57.8	13.9384
58.02	14.5257
58.24	3.58758
58.46	14.4051
58.68	15.5162
58.9	6.56656
59.12	10.9232
59.34	20.5074
59.56	17.4229
59.78	22.7047
60	5.11303
60.22	32.6908
60.44	7.08005
60.66	6.23772
60.88	20.8508
61.1	12.2509
61.32	29.0631
61.54	26.8422
61.76	11.098
61.98	38.205
62.2	19.1538
62.42	25.7108
62.64	52.5097
62.86	14.0777
63.08	5.59503
63.3	18.6365
63.52	29.5843
63.74	13.294
63.96	16.2909
64.18	15.273
64.4	1.30568
64.62	7.99673
64.84	25.4473
65.06	21.5326
65.28	24.4217
65.5	6.32933
65.72	36.6997
65.94	34.4455
66.16	13.3237
66.38	28.8047
66.6	7.28212
66.82	16.2861
67.04	23.1613
67.26	0.441101
67.48	31.4567
67.7	10.2531
67.92	15.9926
68.14	37.0815
68.36	25.665
68.58	17.2047
68.8	10.886
69.02	18.8302
69.24	31.6225
69.46	14.5309
69.68	1.50639
69.9	19.4071
70.12	16.1975
70.34	27.1303
70.56	19.6618
70.78	10.3232
71	32.572
71.22	29.2096
71.44	4.88387
71.66	10.5483
71.88	6.47215
72.1	16.4096
72.32	24.1806
72.54	25.1214
72.76	31.8794
72.98	11.9526
73.2	6.78929
73.42	16.3795
73.64	17.7995
73.86	3.61274
74.08	16.4978
74.3	35.0665
74.52	30.715
74.74	19.387
74.96	17.136
75.18	10.8364
75.4	29.7763
75.62	46.0828
75.84	20.9023
76.06	21.6195
76.28	24.1877
76.5	14.0603
76.72	17.1115
76.94	24.3717
77.16	5.62608
77.38	6.21242
77.6	10.6335
77.82	3.66759
78.04	15.3246
78.26	18.9128
78.48	13.8183
78.7	7.615
78.92	29.3566
79.14	25.9803
79.36	12.4967
79.58	27.8644
79.8	23.8328
80.02	9.76784
80.24	18.163
80.46	32.9577
80.68	30.9416
80.9	18.203
81.12	6.99126
81.34	15.9786
81.56	36.0591
81.78	35.8064
82	1.62357
82.22	28.057
82.44	22.6607
82.66	19.3229
82.88	4.40156
83.1	11.3939
83.32	43.6835
83.54	27.0793
83.76	3.81673
83.98	4.301
84.2	20.2671
84.42	28.2376
84.64	7.60767
84.86	32.5815
85.08	37.099
85.3	2.64558
85.52	10.6515
85.74	4.05531
85.96	0.469559
86.18	22.1365
86.4	21.0284
86.62	12.7956
86.84	1.85234
87.06	15.8025
87.28	16.6552
87.5	22.5242
87.72	25.8379
87.94	15.2911
88.16	42.0959
88.38	7.34512
88.6	18.1666
88.82	34.0476
89.04	18.82
89.26	19.9092
89.48	17.0981
89.7	22.125
89.92	9.17104
