Measurement: Powder, Xray Data XY Processed
Mineral: Magnesite
Rruff sample: R050443
Ideal chemistry: MgCO_3_
Locality: Brumado, Bahia, Brazil
Source: Eugene Schlepp
Description: Group of colorless crystals
Diffraction sample description: Powder
Measured chemistry: Mg_1.00_CO_3_
Cell parameters: a: 4.6343(1) b: 4.6343(1) c: 15.0175(5) alpha: 90. beta: 90. gamma: 120. volume: 279.32(2) crystal system: hexagonal
x	intensity
5	0
5.22	21.4808
5.44	10.6365
5.66	0.966717
5.88	5.21405
6.1	18.4068
6.32	0.012386
6.54	7.39661
6.76	10.7033
6.98	28.5117
7.2	8.09935
7.42	21.0589
7.64	28.5765
7.86	4.52809
8.08	8.51672
8.3	1.36009
8.52	3.02075
8.74	5.7955
8.96	4.32866
9.18	4.99965
9.4	3.91309
9.62	11.2592
9.84	1.72298
10.06	5.35899
10.28	7.41513
10.5	9.26433
10.72	2.34701
10.94	9.55249
11.16	12.4628
11.38	8.67462
11.6	2.71079
11.82	6.07257
12.04	7.33343
12.26	14.2485
12.48	4.44753
12.7	5.52738
12.92	1.33396
13.14	8.83439
13.36	2.82048
13.58	6.79798
13.8	1.11551
14.02	11.0819
14.24	2.15737
14.46	6.96035
14.68	9.06156
14.9	9.09186
15.12	6.25055
15.34	9.3418
15.56	6.52082
15.78	4.81271
16	4.7902
16.22	5.88855
16.44	7.98251
16.66	9.01049
16.88	6.0581
17.1	0.091133
17.32	3.15777
17.54	0.316849
17.76	7.45861
17.98	6.07351
18.2	0.348903
18.42	10.3835
18.64	1.55818
18.86	14.5104
19.08	3.34763
19.3	11.5279
19.52	9.6897
19.74	3.60866
19.96	7.48766
20.18	0.244013
20.4	2.26471
20.62	15.8859
20.84	2.73358
21.06	3.36378
21.28	8.96596
21.5	8.80194
21.72	6.47711
21.94	9.14031
22.16	11.0097
22.38	1.80522
22.6	12.5476
22.82	1.67672
23.04	0.735774
23.26	6.01826
23.48	3.87128
23.7	8.52521
23.92	2.47635
24.14	4.38721
24.36	10.3152
24.58	10.2623
24.8	6.13862
25.02	11.1778
25.24	21.8296
25.46	7.86087
25.68	6.45121
25.9	4.31811
26.12	6.01506
26.34	6.53894
26.56	0.519292
26.78	6.70752
27	15.8693
27.22	9.90938
27.44	8.84191
27.66	9.5289
27.88	6.53788
28.1	5.65178
28.32	6.67129
28.54	7.68726
28.76	0.111386
28.98	12.0799
29.2	6.67731
29.42	88.7224
29.64	19.1239
29.86	5.71
30.08	6.54863
30.3	4.31339
30.52	5.50711
30.74	1.40308
30.96	0.078454
31.18	0.651365
31.4	5.86343
31.62	16.3705
31.84	34.6893
32.06	25.8663
32.28	33.9136
32.5	218.893
32.72	3157.32
32.94	121.734
33.16	32.9912
33.38	0.822767
33.6	3.18246
33.82	11.0123
34.04	2.18661
34.26	8.01225
34.48	3.93289
34.7	4.63862
34.92	12.2365
35.14	1.75246
35.36	15.1814
35.58	22.1136
35.8	84.9397
36.02	145.285
36.24	11.6769
36.46	4.38994
36.68	6.85759
36.9	3.44183
37.12	3.83992
37.34	5.17236
37.56	4.51239
37.78	4.79024
38	6.41884
38.22	7.66415
38.44	0.716882
38.66	19.159
38.88	111.089
39.1	9.27859
39.32	7.44865
39.54	0.710371
39.76	7.2251
39.98	3.62441
40.2	2.00905
40.42	0.471118
40.64	11.3838
40.86	5.98869
41.08	6.40783
41.3	0.341449
41.52	6.07613
41.74	7.28852
41.96	1.51101
42.18	7.84963
42.4	0.150443
42.62	28.7922
42.84	88.3308
43.06	691.555
43.28	56.9625
43.5	24.4925
43.72	16.3679
43.94	7.26803
44.16	7.99281
44.38	4.58865
44.6	8.14649
44.82	9.79397
45.04	5.88339
45.26	11.7858
45.48	1.61474
45.7	7.31255
45.92	1.28919
46.14	15.1166
46.36	15.6379
46.58	15.2393
46.8	68.5173
47.02	79.3364
47.24	11.044
47.46	5.24694
47.68	6.29733
47.9	0.358547
48.12	4.31268
48.34	18.7301
48.56	10.0632
48.78	8.57231
49	5.04982
49.22	4.81521
49.44	4.36768
49.66	8.6267
49.88	2.17818
50.1	9.78032
50.32	5.6013
50.54	9.19375
50.76	7.08732
50.98	6.95453
51.2	0.002034
51.42	12.667
51.64	55.6314
51.86	14.6501
52.08	6.29477
52.3	0.68902
52.52	9.327
52.74	4.95321
52.96	2.33056
53.18	8.29355
53.4	17.1011
53.62	23.7996
53.84	264.408
54.06	492.897
54.28	22.0568
54.5	17.52
54.72	0.882209
54.94	4.3461
55.16	1.91523
55.38	5.54852
55.6	5.0455
55.82	1.54868
56.04	2.78269
56.26	7.43026
56.48	4.20422
56.7	3.46556
56.92	2.62426
57.14	5.03185
57.36	13.3788
57.58	2.54796
57.8	1.83564
58.02	10.0744
58.24	4.17398
58.46	10.2427
58.68	7.96937
58.9	6.38869
59.12	4.47825
59.34	10.1231
59.56	3.87262
59.78	9.51934
60	6.40372
60.22	4.19184
60.44	2.28837
60.66	4.94657
60.88	2.01041
61.1	6.50113
61.32	17.9447
61.54	27.4993
61.76	2.45241
61.98	7.46939
62.2	5.65643
62.42	60.7455
62.64	19.1342
62.86	10.4756
63.08	4.96253
63.3	6.10745
63.52	4.54818
63.74	11.0097
63.96	6.27449
64.18	11.5624
64.4	15.8471
64.62	0.180926
64.84	3.10357
65.06	7.97812
65.28	1.13011
65.5	8.48662
65.72	8.26316
65.94	2.02406
66.16	11.1332
66.38	24.1774
66.6	36.0866
66.82	5.05526
67.04	7.66128
67.26	3.37704
67.48	2.01992
67.7	0.75475
67.92	10.5349
68.14	1.04161
68.36	51.3499
68.58	68.3678
68.8	2.32974
69.02	1.11175
69.24	26.0565
69.46	65.7969
69.68	14.8249
69.9	8.5187
70.12	15.8054
70.34	62.2206
70.56	64.8714
70.78	5.97773
71	2.01573
71.22	4.6908
71.44	3.5441
71.66	15.3953
71.88	2.19917
72.1	0.813893
72.32	3.91366
72.54	1.36231
72.76	2.69803
72.98	6.90932
73.2	10.7571
73.42	8.06418
73.64	5.0094
73.86	4.76969
74.08	6.58929
74.3	5.23655
74.52	10.9307
74.74	4.41974
74.96	4.89143
75.18	0.670647
75.4	3.09027
75.62	9.93777
75.84	5.24613
76.06	65.1512
76.28	34.1603
76.5	0.204414
76.72	7.84813
76.94	23.0111
77.16	16.4345
77.38	4.00617
77.6	10.7884
77.82	0.046708
78.04	4.15005
78.26	6.35205
78.48	8.48614
78.7	2.49443
78.92	0.586401
79.14	3.97342
79.36	16.0827
79.58	10.9291
79.8	11.7274
80.02	8.19163
80.24	2.18947
80.46	2.09101
80.68	4.08186
80.9	9.09467
81.12	5.27058
81.34	7.44972
81.56	26.6236
81.78	5.82461
82	6.84731
82.22	4.0734
82.44	14.1158
82.66	9.25568
82.88	2.41043
83.1	2.73161
83.32	8.90109
83.54	13.0035
83.76	10.1054
83.98	9.94164
84.2	5.9045
84.42	10.0863
84.64	2.20053
84.86	5.30466
85.08	3.2907
85.3	7.37528
85.52	2.69211
85.74	6.28971
85.96	8.20474
86.18	12.1326
86.4	7.25899
86.62	4.3768
86.84	1.14285
87.06	3.17584
87.28	3.35606
87.5	2.44181
87.72	12.3863
87.94	7.3325
88.16	3.3453
88.38	9.42112
88.6	0.450704
88.82	19.5442
89.04	10.6093
89.26	12.324
89.48	11.4673
89.7	0.87807
89.92	9.63439
