Measurement: Powder, Xray Data XY Processed
Mineral: Magnesio-hastingsite
Rruff sample: R040010
Ideal chemistry: NaCa_2_(Mg_4_Fe^3+^)Si_6_Al_2_O_22_(OH)_2_
Locality: Amity, New York, USA
Source: University of Arizona Mineral Museum
Description: Group of black prismatic crystals
Diffraction sample description: Powder
Measured chemistry: (Na_0.50_K_0.43_[box]_0.07_)_Σ=1_(Ca_1.77_Na_0.23_)_Σ=2_(Mg_1.74_Fe_1.22_Fe^3+^_0.79_Mn_0.57_Al_0.30_Zn_0.25_Ti_0.13_)_Σ=5_(Si_5.95_Al_2.05_)_Σ=8_O_22_((OH)_1.75_F_0.22_Cl_0.03_)_Σ=2_; OH estimated by charge balance
Cell parameters: a: 9.9293(6) b: 18.128(1) c: 5.3364(5) alpha: 90. beta: 105.145(6) gamma: 90. volume: 927.24(9) crystal system: monoclinic
x	intensity
5	0
5.22	4.134
5.44	9.046
5.66	2.184
5.88	12.792
6.1	18.633
6.32	20.09
6.54	9.636
6.76	9.844
6.98	20.989
7.2	16.943
7.42	4.299
7.64	7.383
7.86	4.394
8.08	15.096
8.3	1.765
8.52	7.125
8.74	19.663
8.96	8.025
9.18	8.77
9.4	7.623
9.62	6.366
9.84	33.501
10.06	11.666
10.28	25.939
10.5	582.029
10.72	11.109
10.94	9.202
11.16	20.555
11.38	0.598
11.6	1.112
11.82	17.672
12.04	28.28
12.26	7.108
12.48	10.596
12.7	6.539
12.92	16.155
13.14	5.139
13.36	12.471
13.58	18.086
13.8	26.887
14.02	15.635
14.24	14.575
14.46	7.838
14.68	5.09
14.9	6.966
15.12	30.753
15.34	6.411
15.56	18.35
15.78	14.124
16	10.803
16.22	15.09
16.44	7.45
16.66	3.543
16.88	4.705
17.1	18.656
17.32	1.597
17.55	21.475
17.77	20.211
17.99	30.361
18.21	1.145
18.43	6.197
18.65	8.844
18.87	5.815
19.09	19.734
19.31	24.174
19.53	9.378
19.75	16.33
19.97	18.536
20.19	13.754
20.41	20.089
20.63	13.987
20.85	5.609
21.07	15.45
21.29	11.594
21.51	27.337
21.73	4.948
21.95	0.72
22.17	11.636
22.39	14.797
22.61	27.867
22.83	19.316
23.05	11.956
23.27	8.006
23.49	16.506
23.71	8.623
23.93	22.4
24.15	7.599
24.37	18.194
24.59	12.813
24.81	4.432
25.03	8.339
25.25	13.939
25.47	10.085
25.69	2.704
25.91	31.878
26.13	9.399
26.35	56.822
26.57	11.089
26.79	10.192
27.01	28.887
27.23	25.246
27.45	13.972
27.67	1.899
27.89	0.03
28.11	6.897
28.33	37.373
28.55	30.293
28.77	11.48
28.99	4.609
29.21	19.493
29.43	15.551
29.65	10.825
29.87	0.011
30.09	22.83
30.31	92.343
30.53	21.052
30.75	4.324
30.97	18.179
31.19	3.513
31.41	3.836
31.63	11.464
31.85	11.757
32.07	6.954
32.29	6.227
32.51	45.018
32.73	13.529
32.95	132.2
33.17	27.879
33.39	16.651
33.61	7.63
33.83	11.729
34.05	11.754
34.27	15.89
34.49	124.224
34.71	1.482
34.93	24.409
35.15	21.682
35.37	0.32
35.59	8.339
35.81	10.82
36.03	1.086
36.25	7.76
36.47	19.899
36.69	11.093
36.91	9.921
37.13	17.266
37.35	12.075
37.57	17.364
37.79	15.783
38.01	37.328
38.23	61.174
38.45	20.192
38.67	26.527
38.89	14.682
39.11	42.146
39.33	7.438
39.55	1.637
39.77	23.397
39.99	0.627
40.21	28.13
40.43	13.931
40.65	6.116
40.87	15.598
41.09	25.909
41.31	6.385
41.53	12.874
41.75	38.299
41.97	24.566
42.19	21.315
42.41	11.481
42.63	8.687
42.85	8.327
43.07	20.815
43.29	27.348
43.51	16.792
43.73	12.994
43.95	3.653
44.17	28.844
44.39	37.834
44.61	30.562
44.83	26.29
45.05	1.725
45.27	14.716
45.49	13.149
45.71	0.629
45.93	7.913
46.15	10.248
46.37	17.338
46.59	33.616
46.81	16.761
47.03	12.611
47.25	19.634
47.47	12.618
47.69	20.496
47.91	19.484
48.13	45.268
48.35	17.257
48.57	31.426
48.79	25.021
49.01	14.012
49.23	1.323
49.45	14.919
49.67	28.275
49.89	2.172
50.11	16.552
50.33	27.913
50.55	7.051
50.77	9.985
50.99	27.098
51.21	6.736
51.43	6.677
51.65	7.723
51.87	21.43
52.09	21.003
52.31	24.784
52.53	10.857
52.75	10.54
52.97	28.212
53.19	7.029
53.41	0.251
53.63	21.627
53.85	22.066
54.07	7.868
54.29	27.935
54.51	19.458
54.73	4.684
54.95	32.856
55.17	7.124
55.39	43.04
55.61	39.999
55.83	23.832
56.05	7.652
56.27	18.014
56.49	4.293
56.71	58.741
56.93	19.971
57.15	2.338
57.37	10.783
57.59	2.052
57.81	26.912
58.03	16.834
58.25	13.584
58.47	17.898
58.69	12.99
58.91	32.408
59.13	33.102
59.35	23.886
59.57	27.442
59.79	24.836
60.01	16.099
60.23	9.069
60.45	2.933
60.67	51.75
60.89	25.365
61.11	6.922
61.33	15.05
61.55	23.217
61.77	15.61
61.99	5.086
62.21	0.464
62.43	3.47
62.65	5.375
62.87	20.802
63.09	3.599
63.31	2.897
63.53	25.354
63.75	21.836
63.97	20.156
64.19	60.053
64.41	54.953
64.63	25.473
64.85	4.077
65.07	8.378
65.29	7.545
65.51	13.227
65.73	7.444
65.95	18.794
66.17	20.748
66.39	9.876
66.61	4.476
66.83	8.314
67.05	4.959
67.27	3.492
67.49	12.15
67.71	9.772
67.93	12.983
68.15	17.38
68.37	26.363
68.59	31.026
68.81	8.849
69.03	15.008
69.25	11.891
69.47	2.934
69.69	4.908
69.91	31.285
70.13	34.471
70.35	17.737
70.57	20.47
70.79	25.275
71.01	17.339
71.23	14.317
71.45	43.539
71.67	25.481
71.89	11.803
72.11	9.036
72.33	2.968
72.55	17.152
72.77	29.273
72.99	6.69
73.21	19.711
73.43	2.517
73.65	24.632
73.87	36.972
74.09	36.382
74.31	7.494
74.53	22.661
74.75	10.874
74.97	29.798
75.19	19.242
75.41	1.903
75.63	16.209
75.85	19.298
76.07	9.499
76.29	18.412
76.51	16.305
76.73	20.178
76.95	19.897
77.17	5.732
77.39	27.536
77.61	0.351
77.83	21.153
78.05	10.814
78.27	16.435
78.49	11.793
78.71	12.7
78.93	28.838
79.15	26.107
79.37	10.408
79.59	10.888
79.81	11.168
80.03	16.633
80.25	13.464
80.47	26.742
80.69	3.917
80.91	12.048
81.13	13.864
81.35	8.442
81.57	9.146
81.79	17.791
82.01	13.911
82.23	3.913
82.45	8.208
82.67	12.812
82.89	16.033
83.11	10.955
83.33	6.209
83.55	23.668
83.77	1.952
83.99	11.415
84.21	22.577
84.43	12.428
84.65	22.624
84.87	16.046
85.09	21.461
85.31	17.07
85.53	10.831
85.75	16.676
85.97	23.214
86.19	0.947
86.41	7.627
86.63	10.463
86.85	22.509
87.07	28.97
87.29	11.415
87.51	18.319
87.73	7.792
87.95	30.344
88.17	9.689
88.39	11.375
88.61	15.198
88.83	11.921
89.05	31.508
89.27	28.468
89.49	11.544
89.71	18.493
89.93	20.111
