Measurement: Powder, Xray Data XY Processed
Mineral: Magnesiochromite
Rruff sample: R050399
Ideal chemistry: MgCr^3+^_2_O_4_
Locality: Troodos Mountains, Cyprus
Source: Andy McCarthy
Description: Black grains
Diffraction sample description: Powder
Measured chemistry: (Mg_0.68_Fe^2+^_0.32_)_Σ=1_(Cr_1.29_Al_0.64_Fe^3+^_0.07_)_Σ=2_O__4
Cell parameters: a: 8.2792(2) b: 8.2792(2) c: 8.2792(2) alpha: 90 beta: 90 gamma: 90 volume: 567.49(3) crystal system: cubic
x	intensity
5	0
5.22	10.7011
5.44	5.90404
5.66	8.41443
5.88	8.66053
6.1	13.3026
6.32	4.57025
6.54	14.9506
6.76	9.69865
6.98	10.6591
7.2	15.8377
7.42	7.73851
7.64	10.0765
7.86	13.4222
8.08	11.8101
8.3	1.71867
8.52	20.8186
8.74	21.1579
8.96	13.3705
9.18	9.80347
9.4	4.10017
9.62	6.95854
9.84	14.9915
10.06	2.69047
10.28	5.72009
10.5	14.7665
10.72	0.011114
10.94	17.854
11.16	8.10391
11.38	17.2909
11.6	8.86779
11.82	8.04307
12.04	12.1647
12.26	7.51881
12.48	10.103
12.7	9.02196
12.92	1.07945
13.14	9.98955
13.36	7.23853
13.58	11.8224
13.8	12.0415
14.02	2.32951
14.24	18.8528
14.46	4.21769
14.68	25.6916
14.9	14.378
15.12	4.75426
15.34	15.0556
15.56	21.9355
15.78	3.15894
16	10.0223
16.22	6.71788
16.44	17.668
16.66	18.9488
16.88	1.61961
17.1	11.3672
17.32	0.072231
17.54	12.5993
17.76	7.5647
17.98	12.56
18.2	1.13327
18.42	19.0545
18.64	94.1355
18.86	7.12325
19.08	4.03763
19.3	3.43255
19.52	10.9445
19.74	0.764309
19.96	12.7672
20.18	2.79602
20.4	15.9105
20.62	6.03703
20.84	14.1818
21.06	22.2651
21.28	0.648029
21.5	10.5429
21.72	10.3654
21.94	13.1742
22.16	9.64205
22.38	7.74895
22.6	14.7049
22.82	7.29326
23.04	17.0985
23.26	18.9646
23.48	9.70403
23.7	13.5207
23.92	1.06673
24.14	4.95532
24.36	17.6683
24.58	17.7502
24.8	4.96018
25.02	0.323399
25.24	0.002033
25.46	7.89605
25.68	2.0892
25.9	9.5327
26.12	14.6546
26.34	8.03408
26.56	1.52821
26.78	13.4736
27	5.23846
27.22	10.3261
27.44	13.3683
27.66	19.2636
27.88	5.49355
28.1	4.54963
28.32	14.3134
28.54	22.1691
28.76	16.8327
28.98	0.441315
29.2	10.3029
29.42	1.00201
29.64	5.70023
29.86	3.83567
30.08	14.066
30.3	21.6458
30.52	59.9985
30.74	20.3759
30.96	8.38543
31.18	14.3697
31.4	13.0081
31.62	0.029743
31.84	1.37846
32.06	5.01983
32.28	11.4458
32.5	15.5584
32.72	0.30707
32.94	4.83881
33.16	13.1182
33.38	13.1426
33.6	27.2739
33.82	5.1131
34.04	13.015
34.26	13.4693
34.48	11.0946
34.7	1.02913
34.92	13.2822
35.14	10.1511
35.36	0.409363
35.58	11.4279
35.8	25.6455
36.02	183.895
36.24	29.001
36.46	12.0684
36.68	3.75363
36.9	1.17616
37.12	16.6889
37.34	3.75514
37.56	10.1958
37.78	3.36543
38	14.8284
38.22	7.24532
38.44	16.0265
38.66	10.3672
38.88	12.3735
39.1	18.1055
39.32	13.2928
39.54	10.1629
39.76	3.64694
39.98	24.5324
40.2	3.431
40.42	0.048075
40.64	17.9265
40.86	6.15726
41.08	4.90496
41.3	10.1821
41.52	0.26367
41.74	11.4542
41.96	14.913
42.18	4.40702
42.4	12.4001
42.62	9.31041
42.84	10.0633
43.06	4.24741
43.28	17.2297
43.5	15.8278
43.72	166.413
43.94	22.7014
44.16	5.64738
44.38	2.78721
44.6	8.39153
44.82	4.4866
45.04	0.001755
45.26	9.4521
45.48	5.2196
45.7	16.1471
45.92	3.41865
46.14	3.1473
46.36	9.62618
46.58	15.758
46.8	9.09605
47.02	8.99933
47.24	5.89459
47.46	1.90088
47.68	6.74515
47.9	0.523666
48.12	8.04068
48.34	20.1356
48.56	6.71774
48.78	12.0452
49	2.47303
49.22	8.39364
49.44	21.8684
49.66	5.71181
49.88	10.049
50.1	12.9763
50.32	3.86858
50.54	13.3884
50.76	8.16193
50.98	2.63543
51.2	9.90359
51.42	6.47535
51.64	16.2164
51.86	10.1504
52.08	8.95666
52.3	10.5696
52.52	18.5799
52.74	12.6609
52.96	4.73132
53.18	11.8406
53.4	4.34076
53.62	19.9517
53.84	6.55618
54.06	16.8974
54.28	39.0382
54.5	22.2216
54.72	17.5542
54.94	12.6852
55.16	12.5377
55.38	10.9845
55.6	16.7339
55.82	0.926266
56.04	17.2732
56.26	12.6361
56.48	1.07211
56.7	6.63334
56.92	8.28949
57.14	6.66911
57.36	4.35737
57.58	10.8244
57.8	36.245
58.02	93.5116
58.24	9.8433
58.46	7.30982
58.68	10.3396
58.9	1.05763
59.12	6.56393
59.34	9.15607
59.56	0.493473
59.78	9.61674
60	7.22421
60.22	10.3337
60.44	11.263
60.66	12.4765
60.88	10.0359
61.1	24.3539
61.32	3.36153
61.54	0.448013
61.76	2.68178
61.98	7.03915
62.2	2.71808
62.42	11.0354
62.64	15.8338
62.86	1.48993
63.08	17.5184
63.3	15.4189
63.52	101.419
63.74	85.261
63.96	11.9916
64.18	7.39265
64.4	0.376545
64.62	20.2925
64.84	4.59812
65.06	11.8638
65.28	12.2324
65.5	3.18383
65.72	5.49097
65.94	11.5733
66.16	10.0194
66.38	6.16984
66.6	16.1944
66.82	24.3825
67.04	22.9419
67.26	12.3992
67.48	9.06173
67.7	11.4238
67.92	1.43535
68.14	12.7272
68.36	17.9765
68.58	7.81706
68.8	7.33343
69.02	10.5242
69.24	14.5073
69.46	12.9962
69.68	16.6805
69.9	12.4794
70.12	20.3142
70.34	0.642891
70.56	4.42777
70.78	12.4751
71	17.2356
71.22	9.66338
71.44	12.5507
71.66	16.7886
71.88	2.10884
72.1	9.41641
72.32	0.587185
72.54	15.5174
72.76	10.2153
72.98	7.88291
73.2	12.8303
73.42	10.6143
73.64	6.75859
73.86	15.7695
74.08	12.3745
74.3	5.86433
74.52	11.7724
74.74	2.39452
74.96	1.16151
75.18	34.4371
75.4	18.6722
75.62	14.9723
75.84	22.6083
76.06	2.54596
76.28	24.3111
76.5	16.0839
76.72	11.2426
76.94	20.3777
77.16	4.2245
77.38	13.1935
77.6	24.5339
77.82	5.25295
78.04	2.27296
78.26	13.9045
78.48	2.39982
78.7	9.20576
78.92	5.92949
79.14	5.93157
79.36	0.063772
79.58	0.470339
79.8	22.3413
80.02	13.5026
80.24	15.8454
80.46	25.8901
80.68	9.36896
80.9	6.05359
81.12	4.88602
81.34	13.8068
81.56	3.7708
81.78	8.91805
82	11.1341
82.22	15.8255
82.44	8.63133
82.66	17.7375
82.88	11.7154
83.1	4.5381
83.32	5.97326
83.54	13.1989
83.76	1.34108
83.98	15.4762
84.2	3.41655
84.42	11.6855
84.64	23.818
84.86	0.484072
85.08	10.4682
85.3	3.29831
85.52	11.0065
85.74	2.32011
85.96	17.3367
86.18	1.27144
86.4	3.17123
86.62	7.08009
86.84	2.1784
87.06	13.8708
87.28	8.82277
87.5	18.882
87.72	18.0079
87.94	2.07011
88.16	3.35794
88.38	16.5902
88.6	16.1032
88.82	14.5524
89.04	1.19016
89.26	0.446186
89.48	3.8443
89.7	10.8733
89.92	18.9825
