Measurement: Powder, Xray Data XY Processed
Mineral: Magnesio-riebeckite
Rruff sample: R070002
Ideal chemistry: [box]Na_2_(Mg_3_Fe^3+^_2_)Si_8_O_22_(OH)_2_
Locality: Alto Chapare, Cochabamba Department, Bolivia
Source: Michael Scott
Description: Light bluish gray fibrous cloth-like fabric
Diffraction sample description: Powder
Measured chemistry: (Na_1.92_Ca_0.08_K_0.04_)_Σ=2_(Mg_2.62_Fe^2+^_0.50_)_Σ=3.12_(Fe^3+^_1.84_Al_0.04_)_Σ=1.88_Si_8.00_O_22_(OH)_2_; OH estimated by stoichiometry; Fe^3+^ and Fe^2+^ splitted by charge balance
Cell parameters: a: 9.7043(4) b: 17.9407(7) c: 5.3053(5) alpha: 90 beta: 103.691(4) gamma: 90 volume: 897.41(7) crystal system: monoclinic
x	intensity
5	0
5.22	22.1067
5.44	23.1722
5.66	15.2651
5.88	35.0625
6.1	39.3995
6.32	27.886
6.54	41.3821
6.76	1.95562
6.98	22.3257
7.2	10.6285
7.42	14.2378
7.64	5.70554
7.86	0.755989
8.08	15.4105
8.3	0.986626
8.52	21.9879
8.74	10.2511
8.96	34.6169
9.18	30.8625
9.4	10.8712
9.62	22.4942
9.84	72.3513
10.06	35.8178
10.28	24.6821
10.5	194.527
10.72	52.7224
10.94	11.2863
11.16	6.34183
11.38	29.8632
11.6	14.9176
11.82	34.2836
12.04	15.515
12.26	18.0377
12.48	37.6354
12.7	15.1768
12.92	18.6134
13.14	8.36627
13.36	15.1877
13.58	21.4347
13.8	18.1066
14.02	47.2455
14.24	43.673
14.46	35.7871
14.68	23.6832
14.9	33.7596
15.12	3.51508
15.34	7.79478
15.56	1.51054
15.78	14.3367
16	14.2927
16.22	16.8788
16.44	34.4779
16.66	37.938
16.88	38.8489
17.1	13.9975
17.32	40.8961
17.54	22.3871
17.76	9.51282
17.98	15.9809
18.2	105.898
18.42	35.8092
18.64	22.385
18.86	36.7783
19.08	18.8881
19.3	18.1551
19.52	2.33277
19.74	99.7352
19.96	16.4189
20.18	6.10284
20.4	19.2342
20.62	12.1289
20.84	7.75776
21.06	38.1376
21.28	52.8532
21.5	16.1069
21.72	15.9586
21.94	17.5492
22.16	10.2914
22.38	18.8435
22.6	1.5704
22.82	8.53471
23.04	44.6694
23.26	13.9025
23.48	6.08109
23.7	14.8114
23.92	20.9607
24.14	9.16676
24.36	21.9104
24.58	22.8029
24.8	35.068
25.02	3.55987
25.24	9.26446
25.46	1.44039
25.68	0.7286
25.9	4.70376
26.12	69.8497
26.34	52.1378
26.56	39.6681
26.78	12.7779
27	26.2741
27.22	41.2804
27.44	96.177
27.66	20.962
27.88	12.7233
28.1	13.5019
28.32	18.0736
28.54	22.236
28.76	211.431
28.98	61.4404
29.2	14.6155
29.42	20.0371
29.64	39.8871
29.86	32.7868
30.08	18.5381
30.3	42.3683
30.52	10.7141
30.74	19.7224
30.96	26.0611
31.18	13.8687
31.4	22.1863
31.62	5.44386
31.84	17.4305
32.06	41.1121
32.28	36.8728
32.5	13.7162
32.72	2.6991
32.94	50.709
33.16	120.667
33.38	25.2365
33.6	3.76928
33.82	2.74157
34.04	16.2897
34.26	14.6501
34.48	18.8909
34.7	63.397
34.92	9.64261
35.14	9.65661
35.36	6.91356
35.58	94.5952
35.8	15.4476
36.02	36.9653
36.24	12.569
36.46	22.2231
36.68	11.0249
36.9	29.7219
37.12	6.47734
37.34	25.2589
37.56	4.95895
37.78	28.578
38	9.52948
38.22	3.25172
38.44	27.1212
38.66	14.6027
38.88	14.533
39.1	28.9953
39.32	40.3767
39.54	15.5203
39.76	16.7753
39.98	20.5057
40.2	28.528
40.42	3.30046
40.64	8.01221
40.86	12.2717
41.08	24.3966
41.3	11.6883
41.52	23.1492
41.74	77.1795
41.96	16.9087
42.18	14.5471
42.4	13.6754
42.62	23.7522
42.84	9.12165
43.06	30.6049
43.28	10.4284
43.5	19.911
43.72	12.5054
43.94	52.9023
44.16	17.2286
44.38	27.0455
44.6	6.78722
44.82	40.0662
45.04	22.7184
45.26	12.3767
45.48	12.7819
45.7	28.1723
45.92	11.2606
46.14	30.0985
46.36	46.8457
46.58	28.8439
46.8	30.1014
47.02	13.5015
47.24	41.9285
47.46	11.9291
47.68	5.20583
47.9	5.50088
48.12	11.7658
48.34	16.4629
48.56	32.8195
48.78	12.0336
49	5.26154
49.22	13.8101
49.44	8.54607
49.66	30.2505
49.88	14.0058
50.1	17.1426
50.32	10.5778
50.54	3.78883
50.76	24.2829
50.98	31.672
51.2	44.2896
51.42	5.21429
51.64	7.79201
51.86	31.409
52.08	10.5058
52.3	7.75456
52.52	1.16646
52.74	17.7536
52.96	32.6583
53.18	28.6006
53.4	15.2072
53.62	24.1632
53.84	3.53605
54.06	16.7678
54.28	18.6298
54.5	0.493202
54.72	7.1902
54.94	11.5242
55.16	10.5052
55.38	15.4235
55.6	33.8958
55.82	46.444
56.04	11.6685
56.26	9.32427
56.48	28.6922
56.7	14.5227
56.92	8.42995
57.14	15.6377
57.36	13.6234
57.58	25.0477
57.8	20.1293
58.02	19.2013
58.24	27.0848
58.46	6.88253
58.68	26.1482
58.9	24.9065
59.12	23.7513
59.34	7.9126
59.56	6.50271
59.78	36.1937
60	3.57637
60.22	19.8271
60.44	23.081
60.66	14.0017
60.88	17.3171
61.1	9.39833
61.32	47.0083
61.54	22.149
61.76	12.8347
61.98	25.9521
62.2	10.3399
62.42	16.9417
62.64	13.4902
62.86	31.052
63.08	21.7963
63.3	7.24268
63.52	2.34793
63.74	18.7436
63.96	6.75024
64.18	23.1418
64.4	16.2043
64.62	15.0698
64.84	3.53958
65.06	20.8096
65.28	5.60004
65.5	22.3806
65.72	35.8173
65.94	30.4962
66.16	8.47269
66.38	8.58431
66.6	7.455
66.82	15.8618
67.04	4.86053
67.26	15.1887
67.48	12.2062
67.7	12.6428
67.92	10.0539
68.14	15.8758
68.36	17.4078
68.58	25.5528
68.8	9.51727
69.02	8.4531
69.24	26.9137
69.46	3.56733
69.68	12.0029
69.9	29.9338
70.12	4.00242
70.34	5.53267
70.56	4.82175
70.78	8.94844
71	15.4898
71.22	8.31908
71.44	36.799
71.66	18.4939
71.88	10.4058
72.1	20.1784
72.32	13.1971
72.54	29.1926
72.76	16.4761
72.98	18.4839
73.2	15.1354
73.42	33.0173
73.64	26.7695
73.86	7.10088
74.08	0.02887
74.3	13.2817
74.52	9.85358
74.74	7.24249
74.96	21.6874
75.18	5.99805
75.4	6.32441
75.62	0.656143
75.84	23.6388
76.06	15.1362
76.28	18.694
76.5	3.93892
76.72	24.1609
76.94	18.0524
77.16	14.4118
77.38	5.6627
77.6	6.65153
77.82	37.7986
78.04	24.6863
78.26	10.2891
78.48	13.0361
78.7	23.4718
78.92	22.8682
79.14	20.535
79.36	11.2202
79.58	26.1083
79.8	36.9802
80.02	22.8287
80.24	16.0243
80.46	3.20969
80.68	19.352
80.9	13.3186
81.12	6.4481
81.34	18.4804
81.56	1.53641
81.78	20.5158
82	6.10966
82.22	22.0816
82.44	19.3779
82.66	13.6343
82.88	28.8363
83.1	20.051
83.32	19.4758
83.54	11.8258
83.76	21.4875
83.98	1.13235
84.2	13.5077
84.42	11.3036
84.64	19.4689
84.86	27.7675
85.08	17.0659
85.3	8.85014
85.52	6.02273
85.74	13.8843
85.96	14.9176
86.18	19.412
86.4	16.1933
86.62	14.5804
86.84	5.54807
87.06	16.5219
87.28	12.2246
87.5	11.9231
87.72	21.3109
87.94	10.5426
88.16	3.9118
88.38	0.514973
88.6	7.13598
88.82	6.88147
89.04	12.1025
89.26	36.4205
89.48	31.0799
89.7	1.9655
89.92	12.7564
