Measurement: Powder, Xray Data XY Processed
Mineral: Malachite
Rruff sample: R050508
Ideal chemistry: Cu^2+^_2_CO_3_(OH)_2_
Locality: Kambova, Kantanga, Zaire
Source: University of Arizona Mineral Museum
Description: Green short bladed crystals
Diffraction sample description: Powder
Measured chemistry: Cu_2.00_(CO_3_)(OH)_2_
Cell parameters: a: 9.480(5) b: 11.937(2) c: 3.243(1) alpha: 90. beta: 98.76(2) gamma: 90. volume: 362.81(8) crystal system: monoclinic
x	intensity
5	0
5.22	19.3859
5.44	14.7648
5.66	11.9758
5.88	10.8415
6.1	28.8503
6.32	16.5168
6.54	19.9928
6.76	15.4243
6.98	44.8075
7.2	23.2735
7.42	23.4267
7.64	12.6402
7.86	33.0312
8.08	22.985
8.3	22.9859
8.52	15.0487
8.74	5.77777
8.96	21.2684
9.18	14.4738
9.4	21.0342
9.62	34.3678
9.84	8.27051
10.06	1.74492
10.28	19.5993
10.5	12.9641
10.72	5.94262
10.94	24.5985
11.16	26.0781
11.38	2.83963
11.6	8.68254
11.82	9.98863
12.04	50.5008
12.26	1.41803
12.48	20.9342
12.7	11.6166
12.92	36.363
13.14	27.178
13.36	17.8884
13.58	28.1351
13.8	13.2926
14.02	3.2029
14.24	2.59761
14.46	10.9822
14.68	67.514
14.9	170.604
15.12	23.9824
15.34	30.6346
15.56	15.5808
15.78	11.0193
16	28.4133
16.22	15.8156
16.44	17.1182
16.66	12.5586
16.88	5.90598
17.1	9.59803
17.32	51.2781
17.54	237.356
17.76	74.0811
17.98	5.07681
18.2	44.1254
18.42	9.24575
18.64	18.4752
18.86	44.7846
19.08	31.1884
19.3	19.89
19.52	6.37209
19.74	18.754
19.96	23.1901
20.18	13.8547
20.4	30.0149
20.62	42.8257
20.84	29.6938
21.06	36.7024
21.28	15.9605
21.5	19.4948
21.72	23.6776
21.94	25.9084
22.16	9.51181
22.38	5.96566
22.6	23.855
22.82	3.1537
23.04	7.832
23.26	11.8809
23.48	18.8285
23.7	30.71
23.92	70.4958
24.14	332.142
24.36	107.353
24.58	32.8714
24.8	18.6477
25.02	4.76865
25.24	5.79417
25.46	20.5404
25.68	41.3355
25.9	54.5404
26.12	9.96017
26.34	5.08716
26.56	31.5435
26.78	16.6245
27	25.042
27.22	21.7239
27.44	12.678
27.66	9.98988
27.88	38.29
28.1	16.1254
28.32	13.8917
28.54	19.0626
28.76	13.4529
28.98	12.3624
29.2	1.66707
29.42	58.7692
29.64	38.1242
29.86	49.2439
30.08	33.9624
30.3	9.92911
30.52	13.8809
30.74	5.62636
30.96	56.5913
31.18	215.189
31.4	463.563
31.62	125.693
31.84	58.6655
32.06	72.6746
32.28	200.588
32.5	41.1841
32.72	11.1088
32.94	26.551
33.16	5.28816
33.38	33.0311
33.6	11.5353
33.82	26.2809
34.04	27.5703
34.26	33.9411
34.48	12.3732
34.7	17.3382
34.92	10.7356
35.14	11.105
35.36	25.4213
35.58	133.638
35.8	71.2862
36.02	29.3595
36.24	51.8193
36.46	41.7367
36.68	37.2732
36.9	15.1213
37.12	15.7254
37.34	16.2994
37.56	16.1329
37.78	2.62893
38	5.08526
38.22	8.84381
38.44	20.6626
38.66	3.12892
38.88	49.5162
39.1	32.1642
39.32	45.429
39.54	23.6356
39.76	19.9483
39.98	24.4333
40.2	18.8046
40.42	9.3181
40.64	22.9427
40.86	33.0729
41.08	12.2627
41.3	37.3789
41.52	17.4807
41.74	27.7278
41.96	15.7889
42.18	16.1063
42.4	24.1567
42.62	27.3536
42.84	22.3845
43.06	22.6685
43.28	12.1242
43.5	42.0234
43.72	32.8749
43.94	10.5628
44.16	38.9965
44.38	12.0307
44.6	0.269646
44.82	1.46216
45.04	26.3491
45.26	4.07439
45.48	4.20509
45.7	25.1097
45.92	6.82761
46.14	27.5298
46.36	4.33977
46.58	16.6676
46.8	14.5578
47.02	6.91104
47.24	15.2103
47.46	40.3419
47.68	25.5841
47.9	24.4199
48.12	19.9841
48.34	24.7478
48.56	13.0337
48.78	5.40838
49	3.21958
49.22	5.21244
49.44	24.1844
49.66	34.6781
49.88	5.05476
50.1	15.6333
50.32	8.07001
50.54	15.2784
50.76	30.2549
50.98	27.4232
51.2	7.39256
51.42	0.729721
51.64	29.3658
51.86	26.9334
52.08	9.51773
52.3	18.8363
52.52	11.9544
52.74	0.209816
52.96	36.6989
53.18	6.80173
53.4	14.4585
53.62	27.0076
53.84	2.05714
54.06	8.21003
54.28	37.863
54.5	32.9382
54.72	35.3971
54.94	36.0666
55.16	10.0937
55.38	6.27132
55.6	15.9087
55.82	1.70544
56.04	37.4248
56.26	26.5131
56.48	30.2248
56.7	4.5219
56.92	23.1032
57.14	33.6031
57.36	1.9956
57.58	16.5496
57.8	30.7594
58.02	30.5073
58.24	27.2753
58.46	5.42193
58.68	32.1938
58.9	39.0803
59.12	15.0178
59.34	13.8421
59.56	7.23581
59.78	26.4699
60	15.4454
60.22	0.695244
60.44	24.02
60.66	30.6345
60.88	17.8389
61.1	5.80778
61.32	25.7934
61.54	17.8835
61.76	16.9393
61.98	12.9735
62.2	34.837
62.42	14.5173
62.64	32.3513
62.86	34.5293
63.08	44.5924
63.3	32.9972
63.52	9.07465
63.74	8.89764
63.96	2.11976
64.18	9.74446
64.4	21.1496
64.62	13.1985
64.84	35.8317
65.06	17.0692
65.28	26.7092
65.5	26.2478
65.72	37.8819
65.94	16.0789
66.16	33.9591
66.38	42.7681
66.6	7.42195
66.82	10.343
67.04	14.057
67.26	30.1924
67.48	11.4806
67.7	2.76068
67.92	29.5492
68.14	16.6918
68.36	6.71153
68.58	23.9449
68.8	34.0192
69.02	18.4352
69.24	36.3994
69.46	19.4305
69.68	19.9884
69.9	32.9971
70.12	28.6988
70.34	5.24737
70.56	44.0922
70.78	27.6152
71	39.9328
71.22	18.7815
71.44	18.1807
71.66	31.8053
71.88	20.8383
72.1	34.209
72.32	12.939
72.54	12.6542
72.76	4.29115
72.98	17.4864
73.2	20.5665
73.42	17.1711
73.64	26.0815
73.86	14.104
74.08	14.9198
74.3	17.4337
74.52	3.69428
74.74	13.525
74.96	4.30806
75.18	20.5806
75.4	1.54046
75.62	16.3034
75.84	11.3059
76.06	7.87286
76.28	22.1965
76.5	22.9906
76.72	19.8705
76.94	11.3427
77.16	16.0864
77.38	28.4839
77.6	19.8007
77.82	25.8048
78.04	27.1201
78.26	3.54573
78.48	11.1775
78.7	9.4393
78.92	40.5938
79.14	6.47413
79.36	20.7796
79.58	14.285
79.8	16.5731
80.02	9.41566
80.24	27.0981
80.46	8.7379
80.68	25.5784
80.9	11.9427
81.12	11.3699
81.34	13.3291
81.56	36.4538
81.78	24.9878
82	3.63121
82.22	3.786
82.44	12.0232
82.66	11.3046
82.88	14.5098
83.1	12.8969
83.32	28.3464
83.54	4.88864
83.76	9.18952
83.98	14.4255
84.2	15.2268
84.42	16.702
84.64	6.31094
84.86	10.3588
85.08	4.83744
85.3	0.337219
85.52	17.009
85.74	8.38339
85.96	8.60145
86.18	4.25044
86.4	6.96727
86.62	15.0042
86.84	13.0488
87.06	7.13798
87.28	5.42725
87.5	1.51899
87.72	16.576
87.94	19.5386
88.16	12.2245
88.38	29.1172
88.6	26.9411
88.82	33.7665
89.04	34.5896
89.26	15.1783
89.48	22.5012
89.7	15.7537
89.92	10.4991
