Measurement: Powder, Xray Data XY Processed
Mineral: Malachite
Rruff sample: R050531
Ideal chemistry: Cu^2+^_2_CO_3_(OH)_2_
Locality: Tsumeb mine, Tsumeb, Otavi District, Oshikoto, Namibia
Source: University of Arizona Mineral Museum
Description: Spherical aggregates of green radiating acicular crystals associated with olivenite and bayldonite
Diffraction sample description: Powder, using Mo radiation
Measured chemistry: (Cu_1.95_Zn_0.05_)_Î£=2_(CO_3_)(OH)_2_ ; C not measured but estimated by stoichiometry
x	intensity
6.56	0
6.68	155.489
6.8	128.712
6.92	199.873
7.04	136.601
7.16	7.88422
7.28	0.424316
7.4	18.7505
7.52	20.3873
7.64	9.21301
7.76	82.4987
7.88	381.161
8	749.679
8.12	833.398
8.24	640.368
8.36	308.472
8.48	137.232
8.6	126.244
8.72	100.012
8.84	100.682
8.96	60.7811
9.08	40.3621
9.2	33.2338
9.32	30.7569
9.44	55.8054
9.56	99.3328
9.68	143.911
9.8	143.382
9.92	79.4085
10.04	54.6028
10.16	30.8222
10.28	36.5233
10.4	24.4803
10.52	21.2725
10.64	47.7759
10.76	171.65
10.88	559.118
11	926.197
11.12	969.178
11.24	666.074
11.36	222.982
11.48	45.0308
11.6	13.4712
11.72	4.20172
11.84	9.7652
11.96	10.5197
12.08	2.64777
12.2	4.55627
12.32	12.8877
12.44	17.9202
12.56	0.079346
12.68	19.6894
12.8	23.4205
12.92	16.5637
13.04	15.6474
13.16	34.1055
13.28	74.7428
13.4	160.074
13.52	227.544
13.64	232.712
13.76	159.583
13.88	98.8973
14	173.361
14.12	695.987
14.24	1513.62
14.36	2097.37
14.48	2104.38
14.6	1659.17
14.72	1198.12
14.84	829.427
14.96	475.647
15.08	178.595
15.2	63.5767
15.32	70.0594
15.44	38.1782
15.56	1.95984
15.68	22.438
15.8	9.49493
15.92	69.907
16.04	272.493
16.16	493.391
16.28	681.952
16.4	748.71
16.52	657.814
16.64	585.194
16.76	452.505
16.88	344.877
17	232.154
17.12	132.363
17.24	125.244
17.36	173.06
17.48	231.51
17.6	257.021
17.72	258.408
17.84	230.348
17.96	175.589
18.08	129.698
18.2	78.8397
18.32	41.0638
18.44	25.8899
18.56	85.7398
18.68	164.001
18.8	196.436
18.92	144.456
19.04	99.9955
19.16	109.099
19.28	105.414
19.4	73.3964
19.52	81.9485
19.64	191.27
19.76	325.669
19.88	348.072
20	265.072
20.12	112.381
20.24	32.848
20.36	34.3164
20.48	70.8756
20.6	136.79
20.72	225.166
20.84	255.459
20.96	247.752
21.08	231.952
21.2	281.705
21.32	336.241
21.44	366.217
21.56	298.645
21.68	205.567
21.8	134.4
21.92	72.1186
22.04	29.2056
22.16	25.7794
22.28	37.7404
22.4	58.3224
22.52	56.5371
22.64	59.7594
22.76	68.5603
22.88	81.5981
23	62.803
23.12	15.0728
23.24	10.1722
23.36	22.8556
23.48	19.1855
23.6	18.8079
23.72	11.6898
23.84	1.63629
23.96	41.8372
24.08	143.364
24.2	306.112
24.32	410.028
24.44	400.745
24.56	307.406
24.68	227.855
24.8	193.751
24.92	186.197
25.04	203.74
25.16	214.124
25.28	260.07
25.4	287.343
25.52	292.027
25.64	337.098
25.76	480.327
25.88	600.575
26	572.898
26.12	443.646
26.24	253.112
26.36	129.209
26.48	112.942
26.6	154.069
26.72	198.323
26.84	227.61
26.96	246.658
27.08	262.321
27.2	290.544
27.32	265.9
27.44	218.771
27.56	199.856
27.68	265.312
27.8	341.334
27.92	319.218
28.04	206.546
28.16	71.6681
28.28	13.2383
28.4	10.6567
28.52	11.5255
28.64	25.6562
28.76	98.1365
28.88	177.642
29	208.873
29.12	183.85
29.24	149.243
29.36	101.47
29.48	65.814
29.6	49.7885
29.72	60.402
29.84	36.9312
29.96	25.0018
30.08	82.7497
30.2	188.283
30.32	220.271
30.44	205.57
30.56	140.56
30.68	77.5709
30.8	47.6876
30.92	68.1318
31.04	71.4396
31.16	56.1807
31.28	38.9799
31.4	31.6197
31.52	10.6116
31.64	17.9993
31.76	25.0704
31.88	31.1585
32	32.3121
32.12	32.2022
32.24	27.9186
32.36	34.0756
32.48	22.8256
32.6	7.96075
32.72	18.3174
32.84	17.8859
32.96	9.82782
33.08	1.02063
33.2	7.03265
33.32	4.23334
33.44	31.5565
33.56	39.9704
33.68	43.1854
33.8	57.859
33.92	66.4828
34.04	71.7865
34.16	69.1572
34.28	62.1149
34.4	44.673
34.52	19.4024
34.64	4.15405
34.76	8.39395
34.88	16.3306
35	6.00723
35.12	33.9883
35.24	78.4456
35.36	108.17
35.48	112.291
35.6	96.9106
35.72	74.0283
35.84	62.0714
35.96	35.9382
36.08	18.6528
36.2	3.00037
36.32	6.69604
36.44	8.82907
36.56	11.3916
36.68	5.40778
36.8	2.34085
36.92	4.92075
37.04	1.58401
37.16	4.93265
37.28	14.8952
37.4	30.8824
37.52	40.4686
37.64	60.3736
37.76	73.7192
37.88	61.9346
38	45.5877
38.12	40.0356
38.24	40.3283
38.36	48.2606
38.48	62.2152
38.6	85.5724
38.72	112.436
38.84	104.01
38.96	95.535
39.08	68.7567
39.2	59.7151
39.32	56.2942
39.44	42.5935
39.56	27.7177
39.68	11.6938
39.8	16.935
39.92	27.2476
40.04	35.8949
40.16	34.5031
40.28	43.3544
40.4	48.6574
40.52	46.548
40.64	42.0246
40.76	47.1497
40.88	54.7753
41	71.6776
41.12	86.8285
41.24	86.2335
41.36	97.8913
41.48	100.976
41.6	92.2216
41.72	76.2735
41.84	62.8757
41.96	55.2275
42.08	45.4278
42.2	22.5041
42.32	12.7431
42.44	2.03571
42.56	6.28284
42.68	4.83151
42.8	2.4118
42.92	10.2862
43.04	7.5336
43.16	7.62253
43.28	10.1771
43.4	21.7282
43.52	28.9597
43.64	36.2105
43.76	47.1061
43.88	68.6225
44	77.846
44.12	89.2813
44.24	88.7953
44.36	68.8287
44.48	54.4927
44.6	39.0116
44.72	28.5549
44.84	12.7483
44.96	12.597
45.08	8.29541
45.2	12.3075
45.32	12.0067
45.44	14.1673
45.56	15.3158
45.68	19.5595
45.8	9.18576
45.92	7.34112
46.04	12.1705
46.16	11.4515
46.28	13.3388
46.4	23.4171
46.52	30.2932
46.64	29.6334
46.76	37.2789
46.88	27.4983
47	23.9427
47.12	27.7217
47.24	32.7561
47.36	31.0417
47.48	20.0637
47.6	8.37683
47.72	5.06522
47.84	3.36621
47.96	0.363129
48.08	1.3598
48.2	17.2457
48.32	29.95
48.44	38.8501
48.56	38.5361
48.68	32.656
48.8	20.7718
48.92	14.2571
49.04	4.55185
49.16	7.04071
49.28	16.7588
49.4	3.5975
49.52	0.60437
49.64	6.4798
49.76	7.01828
49.88	8.4667
50	24.2397
50.12	35.0316
50.24	25.6445
50.36	6.79477
50.48	8.27521
50.6	2.50171
50.72	6.52969
50.84	1.88986
50.96	3.62155
