Measurement: Powder, Xray Data XY Processed
Mineral: Manganite
Rruff sample: R060827
Ideal chemistry: Mn^3+^O(OH)
Locality: Roberts mine, Crosby, Minnesota, USA
Source: Michael Scott
Description: Black submetallic prismatic crystals
Diffraction sample description: Powder
Measured chemistry: Mn^3+^_1.00_O(OH)
Cell parameters: a: 5.307(2) b: 5.2779(4) c: 5.307(1) alpha: 90 beta: 114.44(1) gamma: 90 volume: 135.33(3) crystal system: monoclinic
x	intensity
5	0
5.22	16.0923
5.44	11.0499
5.66	25.4244
5.88	15.8878
6.1	22.2512
6.32	4.77425
6.54	0.420231
6.76	6.47087
6.98	12.8621
7.2	5.18162
7.42	9.48106
7.64	24.3027
7.86	18.4818
8.08	7.72137
8.3	5.57602
8.52	8.77217
8.74	17.6706
8.96	17.8928
9.18	2.14343
9.4	8.70766
9.62	25.381
9.84	23.226
10.06	25.3644
10.28	20.0695
10.5	13.5901
10.72	10.516
10.94	10.508
11.16	16.6655
11.38	11.7821
11.6	21.2244
11.82	12.0076
12.04	9.08926
12.26	15.9872
12.48	13.2847
12.7	14.5604
12.92	1.32777
13.14	19.3319
13.36	19.3612
13.58	7.93937
13.8	7.24545
14.02	4.0178
14.24	2.05401
14.46	17.3798
14.68	16.2885
14.9	6.74728
15.12	7.99715
15.34	4.36485
15.56	1.46853
15.78	9.36018
16	9.70657
16.22	18.7695
16.44	22.92
16.66	19.4608
16.88	9.29513
17.1	3.72796
17.32	13.2998
17.54	8.80766
17.76	16.175
17.98	10.4658
18.2	19.1748
18.42	5.63174
18.64	6.02862
18.86	0.4697
19.08	20.0962
19.3	11.7596
19.52	12.8227
19.74	18.619
19.96	11.2569
20.18	13.0119
20.4	5.16683
20.62	25.4497
20.84	10.1691
21.06	7.6981
21.28	14.2003
21.5	12.365
21.72	9.36562
21.94	2.56187
22.16	20.2293
22.38	22.2044
22.6	8.49252
22.82	15.0182
23.04	38.7669
23.26	4.04385
23.48	23.1728
23.7	10.1163
23.92	27.3762
24.14	19.9586
24.36	5.84767
24.58	7.38708
24.8	15.7978
25.02	10.8575
25.24	4.46266
25.46	5.72642
25.68	9.59546
25.9	16.0193
26.12	164.739
26.34	26.5756
26.56	15.0411
26.78	16.0392
27	15.3969
27.22	5.2995
27.44	6.90951
27.66	24.1896
27.88	4.21571
28.1	4.43301
28.32	3.65939
28.54	19.1748
28.76	4.86967
28.98	21.512
29.2	15.1516
29.42	16.2536
29.64	17.3167
29.86	8.71506
30.08	6.96221
30.3	12.3511
30.52	26.5296
30.74	21.9253
30.96	18.8951
31.18	3.80193
31.4	15.145
31.62	15.1019
31.84	24.8364
32.06	37.2621
32.28	11.6102
32.5	3.06051
32.72	13.8656
32.94	6.74782
33.16	2.73654
33.38	20.5637
33.6	7.59386
33.82	4.13458
34.04	78.8905
34.26	0.052246
34.48	17.9059
34.7	21.0374
34.92	9.5592
35.14	1.78184
35.36	19.4041
35.58	31.4951
35.8	15.5472
36.02	8.17762
36.24	27.1486
36.46	4.46085
36.68	6.06694
36.9	24.8938
37.12	14.9381
37.34	34.6408
37.56	14.7843
37.78	15.0493
38	16.1072
38.22	28.4829
38.44	16.2596
38.66	7.0529
38.88	16.4351
39.1	13.7228
39.32	3.59739
39.54	19.3426
39.76	42.0676
39.98	13.9454
40.2	18.9207
40.42	31.5137
40.64	8.32243
40.86	30.868
41.08	32.1064
41.3	14.3894
41.52	0.365524
41.74	6.88927
41.96	22.281
42.18	8.11501
42.4	0.969467
42.62	16.417
42.84	12.6905
43.06	17.4322
43.28	1.34799
43.5	21.5746
43.72	17.4513
43.94	17.3739
44.16	11.4173
44.38	13.1616
44.6	2.48447
44.82	13.0105
45.04	3.2029
45.26	17.1276
45.48	14.1237
45.7	9.0848
45.92	5.93935
46.14	23.5458
46.36	13.1356
46.58	26.115
46.8	20.69
47.02	15.5325
47.24	10.8703
47.46	13.9532
47.68	2.64674
47.9	15.7165
48.12	10.6948
48.34	10.6478
48.56	3.52024
48.78	7.64523
49	7.48924
49.22	4.06472
49.44	6.33306
49.66	13.706
49.88	19.6252
50.1	5.67629
50.32	11.1957
50.54	22.0104
50.76	14.4385
50.98	33.9547
51.2	39.1011
51.42	29.8667
51.64	13.5201
51.86	1.8987
52.08	18.6439
52.3	9.8725
52.52	0.499031
52.74	9.11418
52.96	7.38828
53.18	18.7212
53.4	0.512814
53.62	2.03468
53.84	37.7976
54.06	21.0676
54.28	0.840969
54.5	25.5888
54.72	13.6428
54.94	85.5863
55.16	0.38213
55.38	4.31056
55.6	18.0393
55.82	13.7551
56.04	24.7579
56.26	23.1873
56.48	14.955
56.7	22.2883
56.92	0.41444
57.14	5.80597
57.36	18.1011
57.58	1.53125
57.8	0.361309
58.02	20.0631
58.24	23.2959
58.46	15.6258
58.68	1.77364
58.9	3.05431
59.12	1.77824
59.34	24.0307
59.56	25.2139
59.78	21.555
60	14.4566
60.22	11.1385
60.44	14.9826
60.66	8.4728
60.88	18.3745
61.1	12.3067
61.32	20.9347
61.54	7.06466
61.76	17.8526
61.98	29.6699
62.2	16.6459
62.42	17.6175
62.64	12.6194
62.86	7.90963
63.08	0.168884
63.3	12.6739
63.52	6.62379
63.74	8.94955
63.96	5.60822
64.18	15.6603
64.4	18.7767
64.62	4.20474
64.84	25.6198
65.06	33.8166
65.28	21.2802
65.5	1.82568
65.72	12.9264
65.94	14.0278
66.16	24.9667
66.38	12.1023
66.6	10.2733
66.82	5.8843
67.04	13.6197
67.26	16.0847
67.48	5.48674
67.7	13.7012
67.92	14.8046
68.14	22.8145
68.36	3.71246
68.58	7.9039
68.8	2.81635
69.02	19.115
69.24	0.393436
69.46	7.21486
69.68	26.4857
69.9	0.4151
70.12	14.6214
70.34	3.63093
70.56	2.42162
70.78	27.4473
71	8.39346
71.22	34.3753
71.44	46.1241
71.66	28.346
71.88	23.0614
72.1	3.04674
72.32	8.15097
72.54	10.0421
72.76	17.2433
72.98	24.3456
73.2	19.5256
73.42	33.3418
73.64	11.1436
73.86	22.1887
74.08	6.91267
74.3	27.0587
74.52	15.9625
74.74	18.1589
74.96	24.2092
75.18	24.2675
75.4	28.2116
75.62	4.01444
75.84	3.67325
76.06	3.24174
76.28	1.70526
76.5	2.69191
76.72	17.5826
76.94	8.89014
77.16	4.08174
77.38	16.0709
77.6	19.3232
77.82	10.4214
78.04	23.0937
78.26	23.7378
78.48	8.51761
78.7	11.5552
78.92	17.1723
79.14	11.1037
79.36	22.967
79.58	20.4084
79.8	25.1439
80.02	16.5019
80.24	2.55944
80.46	18.7415
80.68	26.2367
80.9	20.1686
81.12	18.7302
81.34	11.1792
81.56	13.0834
81.78	18.8399
82	23.3026
82.22	27.9346
82.44	1.80795
82.66	13.1885
82.88	5.24779
83.1	11.5122
83.32	2.44684
83.54	37.3533
83.76	13.9259
83.98	15.1234
84.2	8.27254
84.42	20.5656
84.64	26.4301
84.86	34.8024
85.08	25.8321
85.3	16.0985
85.52	35.0529
85.74	17.6812
85.96	14.7057
86.18	6.47844
86.4	17.2948
86.62	19.3356
86.84	0.924549
87.06	6.94757
87.28	15.8923
87.5	29.5593
87.72	16.5646
87.94	10.5801
88.16	11.9786
88.38	18.0661
88.6	19.3463
88.82	11.2789
89.04	31.8383
89.26	8.11102
89.48	21.0988
89.7	10.2995
89.92	16.5971
