Measurement: Powder, Xray Data XY Processed
Mineral: Mangano-mangani-ungarettiite
Rruff sample: R050244
Ideal chemistry: NaNa_2_(Mn^2+^_2_Mn^3+^_3_)Si_8_O_22_O_2_
Locality: Hoskins mine, near Grenfell, New South Wales, Australia
Source: Marcus Origlieri
Description: Dark red granular, associated with namansilite, R070006
Diffraction sample description: Powder, appears to be a mix of ungarettiite and namansilite, cell parameters are from single crystal
Measured chemistry: Na_1.00_Na_2.00_(Mn^2+^_2.00_(Mn^3+^_2.35_Fe^3+^_0.63_Al_0.02_)_Î£=3_)Si_8.00_O_22_O_2_
Cell parameters: a: 9.85(1) b: 17.84(2) c: 5.287(3) alpha: 90 beta: 105.21(6) gamma: 90 volume: 896.6(5) crystal system: monoclinic
x	intensity
5	0
5.22	2.629
5.44	14.859
5.66	9.429
5.88	12.673
6.1	12.86
6.32	7.512
6.54	8.903
6.76	0.531
6.98	18.725
7.2	14.531
7.42	0.308
7.64	9.573
7.86	10.482
8.08	2.045
8.3	3.368
8.52	5.191
8.74	2.782
8.96	0.785
9.18	1.24
9.4	6.142
9.62	12.93
9.84	2.677
10.06	0.12
10.28	13.558
10.5	44.966
10.72	1.414
10.94	5.188
11.16	9.315
11.38	7.02
11.6	22.985
11.82	6.236
12.04	2.974
12.26	11.573
12.48	19.952
12.7	21.39
12.92	2.773
13.14	16.95
13.36	3.315
13.58	5.527
13.8	18.939
14.02	63.034
14.24	11.931
14.46	0.244
14.68	9.786
14.9	11.678
15.12	11.643
15.34	0.002
15.56	15.217
15.78	19.191
16	1.933
16.22	2.978
16.44	4.104
16.66	11.773
16.88	7.042
17.1	18.559
17.32	19.783
17.54	16.924
17.76	0.417
17.98	0.903
18.2	8.397
18.42	11.435
18.64	8.806
18.86	0.057
19.08	0.519
19.3	5.954
19.52	8.068
19.74	6.329
19.96	10.868
20.18	35.59
20.4	0.136
20.62	119.073
20.84	0.358
21.06	14.849
21.28	3.923
21.5	1.572
21.72	0.19
21.94	18.866
22.16	15.303
22.38	15.215
22.6	2.288
22.82	7.604
23.04	0.558
23.26	13.919
23.48	1.531
23.7	3.318
23.92	16.312
24.14	8.534
24.36	10.976
24.58	23.488
24.8	25.515
25.02	6.09
25.24	1.228
25.46	6.72
25.68	14.194
25.9	14.344
26.12	5.153
26.34	2.052
26.56	16.461
26.78	0.147
27	0.753
27.22	23.719
27.44	45.552
27.66	18.44
27.88	10.765
28.1	3.793
28.32	13.596
28.54	30.264
28.76	16.283
28.98	10.489
29.2	4.908
29.42	13.228
29.64	1.06
29.86	11.245
30.08	0.311
30.3	19.944
30.52	234.522
30.74	8.824
30.96	56.382
31.18	21.363
31.4	2.415
31.62	4.702
31.84	17.121
32.06	9.208
32.28	0.523
32.5	12.861
32.72	20.652
32.94	8.803
33.16	8.467
33.38	16.307
33.6	8.375
33.82	0.646
34.04	18.966
34.26	1.187
34.48	8.572
34.7	40.263
34.92	47.149
35.14	33.444
35.36	7.693
35.58	19.038
35.8	62.071
36.02	65.371
36.24	15.883
36.46	13.601
36.68	6.76
36.9	5.285
37.12	11.96
37.34	13.815
37.56	1.674
37.78	16.237
38	0.461
38.22	12.085
38.44	11.368
38.66	7.134
38.88	25.98
39.1	16.855
39.32	16.269
39.54	19.086
39.76	1.134
39.98	16.838
40.2	53.98
40.42	20.602
40.64	18.009
40.86	17.036
41.08	8.35
41.3	10.004
41.52	20.951
41.74	0.059
41.96	29.702
42.18	26.009
42.4	14.285
42.62	0.979
42.84	3.404
43.06	0.42
43.28	23.41
43.5	51.756
43.72	14.775
43.94	29.921
44.16	12.219
44.38	9.346
44.6	11.758
44.82	0.601
45.04	8.407
45.26	13.408
45.48	37.11
45.7	34.421
45.92	14.411
46.14	9.758
46.36	22.35
46.58	12.815
46.8	0.418
47.02	17.732
47.24	13.73
47.46	5.427
47.68	3.559
47.9	21.324
48.12	10.667
48.34	8.026
48.56	5.404
48.78	6.364
49	13.551
49.22	6.696
49.44	1.825
49.66	12.04
49.88	15.719
50.1	4.47
50.32	9.864
50.54	2.05
50.76	0.804
50.98	0.28
51.2	6.623
51.42	10.061
51.64	7.535
51.86	10.782
52.08	19.517
52.3	4.54
52.52	14.617
52.74	3.183
52.96	14.341
53.18	16.294
53.4	17.495
53.62	13.356
53.84	12.195
54.06	33.07
54.28	15.003
54.5	0.61
54.72	0.697
54.94	13.217
55.16	15.135
55.38	11.479
55.6	15.147
55.82	4.343
56.04	21.011
56.26	35.302
56.48	4.137
56.7	6.803
56.92	10.728
57.14	13.608
57.36	14.483
57.58	21.421
57.8	15.437
58.02	11.954
58.24	29.259
58.46	24.768
58.68	26.196
58.9	38.286
59.12	17.343
59.34	6.168
59.56	8.132
59.78	15.072
60	0.645
60.22	13.427
60.44	1.558
60.66	33.919
60.88	13.855
61.1	6.69
61.32	13.089
61.54	16.267
61.76	20.113
61.98	4.953
62.2	6.694
62.42	14.151
62.64	0.064
62.86	14.853
63.08	8.595
63.3	0.073
63.52	19.942
63.74	7.792
63.96	6.254
64.18	14.898
64.4	9.02
64.62	15.328
64.84	22.345
65.06	13.07
65.28	6.437
65.5	14.717
65.72	16.027
65.94	18.637
66.16	6.873
66.38	12.011
66.6	11.229
66.82	23.928
67.04	34.446
67.26	9.184
67.48	2.896
67.7	6.145
67.92	25.043
68.14	0.986
68.36	4.701
68.58	7.883
68.8	3.905
69.02	5.716
69.24	3.846
69.46	8.646
69.68	21.327
69.9	13.747
70.12	24.66
70.34	10.842
70.56	11.97
70.78	0.557
71	31.351
71.22	12.132
71.44	0.115
71.66	11.13
71.88	1.362
72.1	6.07
72.32	9.546
72.54	25.817
72.76	13.406
72.98	19.261
73.2	1.085
73.42	10.972
73.64	6.67
73.86	14.797
74.08	5.262
74.3	6.067
74.52	0.367
74.74	4.7
74.96	9.167
75.18	6.709
75.4	5.39
75.62	13.406
75.84	7.654
76.06	0.126
76.28	0.766
76.5	5.245
76.72	1.21
76.94	1.654
77.16	3.708
77.38	14.776
77.6	8.467
77.82	1.095
78.04	0.158
78.26	17.65
78.48	11.206
78.7	22.721
78.92	21.159
79.14	15.382
79.36	15.548
79.58	7.106
79.8	11.594
80.02	0.004
80.24	11.675
80.46	25.685
80.68	4.882
80.9	20.754
81.12	14.546
81.34	10.104
81.56	7.162
81.78	0.09
82	0.586
82.22	15.377
82.44	22.799
82.66	11.024
82.88	7.329
83.1	0.213
83.32	24.359
83.54	18.149
83.76	13.405
83.98	8.399
84.2	2.858
84.42	4.488
84.64	33.694
84.86	11.661
85.08	10.157
85.3	19.434
85.52	0.044
85.74	0.397
85.96	15.963
86.18	0.203
86.4	3.974
86.62	13.359
86.84	4.259
87.06	5.958
87.28	6.095
87.5	1.561
87.72	7.406
87.94	10.889
88.16	0.265
88.38	15.143
88.6	4.873
88.82	12.328
89.04	8.524
89.26	2.22
89.48	8.011
89.7	25.709
89.92	2.311
