Measurement: Powder, Xray Data XY Processed
Mineral: Manganite
Rruff sample: R070593
Ideal chemistry: Mn^3+^O(OH)
Locality: Ilfeld, near Nordhausen, Harz Mountains, Thuringia, Germany
Source: James Shigley
Description: Bundled aggregates of steel-gray metallic prisms
Diffraction sample description: Powder
Measured chemistry: Mn^3+^_1.00_O(OH) ; OH estimated by difference and stoichiometry
Cell parameters: a: 5.3033(9) b: 5.2793(2) c: 5.3029(8) alpha: 90 beta: 114.364(3) gamma: 90 volume: 135.246(8) crystal system: monoclinic
x	intensity
5	0
5.22	12.7577
5.44	12.0041
5.66	31.4918
5.88	28.7176
6.1	42.9118
6.32	16.0704
6.54	34.8942
6.76	27.4076
6.98	17.2898
7.2	29.2239
7.42	24.5135
7.64	16.0738
7.86	22.9703
8.08	34.6063
8.3	19.8165
8.52	10.0278
8.74	0.023132
8.96	11.7255
9.18	14.9518
9.4	9.61506
9.62	22.1122
9.84	11.0457
10.06	21.6147
10.28	2.68845
10.5	14.836
10.72	9.83404
10.94	19.4822
11.16	22.0682
11.38	28.5445
11.6	26.4864
11.82	46.97
12.04	15.5546
12.26	43.8014
12.48	13.4602
12.7	28.3582
12.92	29.7305
13.14	1.16605
13.36	9.28546
13.58	14.5719
13.8	14.4356
14.02	18.3967
14.24	19.8518
14.46	4.80462
14.68	17.2284
14.9	19.6785
15.12	25.9321
15.34	6.10999
15.56	35.5595
15.78	21.7754
16	23.4359
16.22	20.1102
16.44	32.8096
16.66	0.42897
16.88	23.1824
17.1	33.2175
17.32	14.482
17.54	38.1243
17.76	38.5809
17.98	18.776
18.2	1.73877
18.42	25.4607
18.64	20.099
18.86	4.42425
19.08	15.3468
19.3	17.2723
19.52	23.145
19.74	22.9512
19.96	4.47591
20.18	31.6212
20.4	15.6714
20.62	29.4455
20.84	27.5662
21.06	0.395195
21.28	29.0759
21.5	2.62249
21.72	9.18963
21.94	18.2249
22.16	11.99
22.38	32.349
22.6	6.83154
22.82	34.8313
23.04	20.7366
23.26	22.2074
23.48	10.555
23.7	33.0273
23.92	19.0775
24.14	27.6221
24.36	8.18555
24.58	25.655
24.8	12.9807
25.02	27.6035
25.24	16.7236
25.46	14.9442
25.68	36.6517
25.9	16.3169
26.12	681.063
26.34	65.28
26.56	8.30526
26.78	33.4522
27	4.94168
27.22	7.5536
27.44	17.0167
27.66	14.535
27.88	21.825
28.1	8.80946
28.32	26.1888
28.54	37.5822
28.76	15.7967
28.98	34.8335
29.2	9.45332
29.42	7.37839
29.64	12.4716
29.86	18.7114
30.08	7.81419
30.3	21.4408
30.52	22.8097
30.74	7.82684
30.96	3.6747
31.18	14.0964
31.4	27.3982
31.62	15.4415
31.84	30.2219
32.06	17.6358
32.28	16.8246
32.5	11.4095
32.72	17.6351
32.94	29.0419
33.16	26.3754
33.38	38.9907
33.6	5.79845
33.82	38.0519
34.04	490.301
34.26	18.421
34.48	20.2851
34.7	3.8567
34.92	31.7321
35.14	4.68105
35.36	22.8388
35.58	33.0938
35.8	0.043793
36.02	23.6954
36.24	3.43814
36.46	1.81999
36.68	23.298
36.9	15.8997
37.12	42.0754
37.34	49.5222
37.56	0.186035
37.78	29.6043
38	25.1022
38.22	3.50541
38.44	0.696739
38.66	9.2619
38.88	14.6635
39.1	16.4396
39.32	5.92007
39.54	11.9615
39.76	182.654
39.98	6.38964
40.2	25.5124
40.42	43.8682
40.64	15.9436
40.86	4.43131
41.08	32.1151
41.3	16.0802
41.52	1.42367
41.74	18.3245
41.96	2.30675
42.18	1.29606
42.4	3.45667
42.62	24.5336
42.84	2.89146
43.06	0.33815
43.28	10.9213
43.5	1.72833
43.72	0.679703
43.94	8.40079
44.16	18.9018
44.38	31.1073
44.6	20.3736
44.82	7.77506
45.04	5.82642
45.26	16.9699
45.48	34.0882
45.7	13.8686
45.92	32.1337
46.14	7.19411
46.36	27.0322
46.58	3.14961
46.8	12.7796
47.02	7.81294
47.24	21.8717
47.46	8.48032
47.68	12.4896
47.9	12.2071
48.12	16.2074
48.34	12.9604
48.56	19.4644
48.78	28.1153
49	10.1378
49.22	36.6567
49.44	15.4676
49.66	11.0529
49.88	8.16786
50.1	13.4281
50.32	1.61014
50.54	23.0637
50.76	14.0004
50.98	36.7518
51.2	55.3653
51.42	45.6591
51.64	24.78
51.86	33.9057
52.08	23.2644
52.3	17.5611
52.52	2.71925
52.74	29.0184
52.96	21.2716
53.18	2.58643
53.4	14.9974
53.62	39.0206
53.84	153.017
54.06	10.2771
54.28	39.8757
54.5	34.6836
54.72	12.3444
54.94	77.8658
55.16	32.8273
55.38	1.71433
55.6	6.40955
55.82	41.5143
56.04	43.9613
56.26	60.5956
56.48	6.77862
56.7	18.4764
56.92	37.3805
57.14	27.8706
57.36	1.85774
57.58	10.6397
57.8	17.8069
58.02	9.70386
58.24	16.5266
58.46	7.2355
58.68	0.008385
58.9	4.52268
59.12	10.1337
59.34	26.743
59.56	22.8935
59.78	1.51905
60	22.1664
60.22	17.1691
60.44	19.3239
60.66	18.2993
60.88	11.5192
61.1	21.759
61.32	21.2633
61.54	18.1537
61.76	54.3494
61.98	48.6256
62.2	3.44015
62.42	21.9326
62.64	3.98752
62.86	4.47386
63.08	17.4646
63.3	28.8723
63.52	21.8219
63.74	26.8026
63.96	15.8823
64.18	37.6576
64.4	4.46026
64.62	9.35875
64.84	7.70387
65.06	2.85926
65.28	33.5471
65.5	13.3315
65.72	21.022
65.94	13.0112
66.16	4.64738
66.38	18.0333
66.6	26.4615
66.82	30.7504
67.04	17.8059
67.26	0.993301
67.48	13.5375
67.7	1.30302
67.92	35.0125
68.14	1.0013
68.36	7.71335
68.58	1.12595
68.8	2.47478
69.02	21.8517
69.24	17.0357
69.46	38.8341
69.68	27.205
69.9	9.24769
70.12	39.5769
70.34	5.37152
70.56	18.6358
70.78	7.95001
71	12.6598
71.22	12.7325
71.44	30.8607
71.66	20.8047
71.88	35.1926
72.1	4.51514
72.32	33.0639
72.54	8.90686
72.76	15.1508
72.98	30.1959
73.2	16.1533
73.42	4.19186
73.64	5.4144
73.86	7.21614
74.08	21.3502
74.3	33.6004
74.52	14.8889
74.74	0.269073
74.96	51.7301
75.18	15.5422
75.4	17.776
75.62	24.7782
75.84	25.2246
76.06	33.9753
76.28	36.9863
76.5	27.0958
76.72	14.2451
76.94	23.3191
77.16	14.4469
77.38	17.5098
77.6	8.34882
77.82	11.1742
78.04	13.1195
78.26	11.7313
78.48	13.6031
78.7	2.50024
78.92	11.3529
79.14	10.0025
79.36	12.7715
79.58	14.8567
79.8	14.912
80.02	25.7853
80.24	30.896
80.46	6.86858
80.68	15.754
80.9	18.2453
81.12	20.0464
81.34	28.233
81.56	14.0526
81.78	18.4411
82	21.863
82.22	5.849
82.44	2.2662
82.66	11.9833
82.88	23.3745
83.1	3.64406
83.32	26.1506
83.54	27.5018
83.76	13.1087
83.98	21.0577
84.2	40.2369
84.42	16.2736
84.64	0.022461
84.86	10.3035
85.08	7.96006
85.3	25.7445
85.52	63.6916
85.74	56.5715
85.96	10.2831
86.18	17.6421
86.4	10.167
86.62	8.98672
86.84	2.77429
87.06	28.1293
87.28	16.9681
87.5	45.9392
87.72	26.9149
87.94	19.8275
88.16	27.3872
88.38	23.436
88.6	23.9719
88.82	2.10168
89.04	40.824
89.26	43.0642
89.48	28.0384
89.7	10.1105
89.92	1.03934
