Measurement: Powder, Xray Data XY Processed
Mineral: Manjiroite
Rruff sample: R060379
Ideal chemistry: Na(Mn^4+^_7_Mn^3+^)O_16_
Locality: Wessels mine, Kalahari Manganese Field, South Africa
Source: Michael Scott
Description: Steel gray bed of parallel fibers
Diffraction sample description: Powder
Measured chemistry: (Na_0.60_K_0.28_Ca_0.12_)_Σ=1_(Mn^4+^_7.40_Mn^2+^_0.44_Mg_0.11_Si_0.03_Al_0.02_)_Σ=8_O_16_·2H_2_O
x	intensity
5	0
5.22	6.851
5.44	4.064
5.66	7.172
5.88	21.588
6.1	20.287
6.32	11.196
6.54	16.7
6.76	3.203
6.98	18.009
7.2	15.211
7.42	3.127
7.64	14.402
7.86	8.755
8.08	17.906
8.3	6.104
8.52	19.465
8.74	13.965
8.96	47.921
9.18	57.591
9.4	44.626
9.62	11.73
9.84	11.627
10.06	9.58
10.28	2.423
10.5	17.376
10.72	14.202
10.94	11.178
11.16	11.656
11.38	6.812
11.6	23.093
11.82	19.157
12.04	25.623
12.26	3.291
12.48	25.432
12.7	25.432
12.92	13.432
13.14	12.663
13.36	8.003
13.58	14.519
13.8	0.571
14.02	22.602
14.24	28.031
14.46	19.464
14.68	8.732
14.9	11.084
15.12	20.465
15.34	3.425
15.56	31.128
15.78	14.948
16	8.232
16.22	8.657
16.44	2.014
16.66	2.566
16.88	5.948
17.1	8.24
17.32	9.764
17.54	6.113
17.76	5.682
17.98	4.04
18.2	7.486
18.42	17.671
18.64	23.56
18.86	18.301
19.08	1.523
19.3	9.665
19.52	5.565
19.74	10.039
19.96	17.802
20.18	12.241
20.4	6.068
20.62	4.482
20.84	3.538
21.06	8.223
21.28	18.468
21.5	13.778
21.72	12.626
21.94	11.404
22.16	10.994
22.38	18.063
22.6	6.588
22.82	3.767
23.04	7.578
23.26	13.714
23.48	11.449
23.7	12.841
23.92	8.625
24.14	14.725
24.36	13.614
24.58	8.278
24.8	13.456
25.02	12.101
25.24	19.226
25.46	31.753
25.68	15.482
25.9	12.959
26.12	3.742
26.34	18.931
26.56	16.273
26.78	4.205
27	17.516
27.22	31.2
27.44	11.186
27.66	5.221
27.88	2.074
28.1	20.907
28.32	9.365
28.54	14.152
28.76	9.145
28.98	13.972
29.2	7.983
29.42	3.431
29.64	10.362
29.86	13.738
30.08	12.871
30.3	33.415
30.52	7.751
30.74	11.12
30.96	5.611
31.18	30.69
31.4	5.899
31.62	14.58
31.84	18.306
32.06	13.271
32.28	28.681
32.5	2.432
32.72	17.203
32.94	19.112
33.16	9.082
33.38	20.786
33.6	10.872
33.82	12.954
34.04	12.659
34.26	6.755
34.48	10.697
34.7	13.704
34.92	8.46
35.14	4.823
35.36	18.873
35.58	8.423
35.8	14.764
36.02	2.514
36.24	9.174
36.46	17.425
36.68	2.038
36.9	20.621
37.12	11.834
37.34	13.071
37.56	10.8
37.78	33.399
38	26.063
38.22	33.099
38.44	11.489
38.66	13.689
38.88	2.394
39.1	1.724
39.32	38.184
39.54	4.778
39.76	10.244
39.98	3.313
40.2	11.59
40.42	2.291
40.64	17.784
40.86	18.826
41.08	2.932
41.3	10.821
41.52	11.518
41.74	11.132
41.96	11.016
42.18	22.448
42.4	19.824
42.62	7.697
42.84	5.496
43.06	9.221
43.28	28.134
43.5	1.448
43.72	26.513
43.94	23.823
44.16	16.797
44.38	6.84
44.6	4.153
44.82	9.179
45.04	10.112
45.26	18.404
45.48	8.696
45.7	18.809
45.92	10.072
46.14	5.66
46.36	4.861
46.58	8.601
46.8	14.472
47.02	16.485
47.24	13.204
47.46	20.286
47.68	2.475
47.9	21.424
48.12	11.066
48.34	4.211
48.56	12.49
48.78	25.61
49	31.058
49.22	5.648
49.44	26.432
49.66	4.676
49.88	11.845
50.1	2.191
50.32	19.848
50.54	24.191
50.76	22.059
50.98	13.9
51.2	32.62
51.42	23.381
51.64	4.197
51.86	10
52.08	20.423
52.3	18.935
52.52	26.527
52.74	19.877
52.96	0.089
53.18	12.951
53.4	26.227
53.62	0.821
53.84	2.555
54.06	11.869
54.28	7.703
54.5	22.521
54.72	12.6
54.94	15.017
55.16	20.048
55.38	14.655
55.6	20.604
55.82	21.021
56.04	39.088
56.26	2.668
56.48	13.416
56.7	14.21
56.92	18.941
57.14	1.44
57.36	21.248
57.58	7.601
57.8	18.755
58.02	6.07
58.24	17.997
58.46	19.744
58.68	15.448
58.9	13.658
59.12	16.522
59.34	8.942
59.56	5.698
59.78	4.889
60	9.325
60.22	12.761
60.44	10.883
60.66	13.774
60.88	13.917
61.1	11.298
61.32	9.061
61.54	1.511
61.76	28.074
61.98	23.339
62.2	0.772
62.42	8.424
62.64	23.685
62.86	26.814
63.08	11.883
63.3	2.14
63.52	18.437
63.74	1.201
63.96	19.741
64.18	9.476
64.4	15.048
64.62	14.544
64.84	24.102
65.06	13.496
65.28	9.2
65.5	15.769
65.72	3.613
65.94	21.459
66.16	4.799
66.38	12.833
66.6	5.581
66.82	18.415
67.04	8.073
67.26	8.653
67.48	20.591
67.7	15.903
67.92	21.881
68.14	15.513
68.36	0.302
68.58	13.254
68.8	18.375
69.02	18.708
69.24	13.003
69.46	32.327
69.68	18.637
69.9	18.086
70.12	23.269
70.34	31.36
70.56	28.723
70.78	24.751
71	24.081
71.22	28.736
71.44	14.458
71.66	3.628
71.88	8.125
72.1	13.779
72.32	15.168
72.54	8.712
72.76	7.809
72.98	12.181
73.2	11.851
73.42	4.644
73.64	13.828
73.86	20.306
74.08	23.413
74.3	14.868
74.52	18.215
74.74	2.862
74.96	22.001
75.18	0.831
75.4	4.962
75.62	29.98
75.84	13.306
76.06	7.311
76.28	16.538
76.5	20.512
76.72	12.339
76.94	23.223
77.16	17.183
77.38	15.772
77.6	6.704
77.82	25.934
78.04	19.014
78.26	26.011
78.48	13.297
78.7	15.449
78.92	10.845
79.14	4.669
79.36	27.761
79.58	17.13
79.8	5.766
80.02	10.867
80.24	26.081
80.46	23.166
80.68	10.924
80.9	13.906
81.12	25.566
81.34	2.952
81.56	8.294
81.78	11.766
82	19.95
82.22	15.12
82.44	5.054
82.66	19.163
82.88	16.109
83.1	16.154
83.32	21.051
83.54	23.994
83.76	19.335
83.98	23.217
84.2	3.114
84.42	5.032
84.64	33.253
84.86	0.507
85.08	23.135
85.3	2.41
85.52	0.27
85.74	11.868
85.96	31.686
86.18	1.543
86.4	5.831
86.62	3.56
86.84	15.269
87.06	11.48
87.28	7.1
87.5	3.159
87.72	0.637
87.94	22.98
88.16	6.087
88.38	0.588
88.6	22.722
88.82	13.685
89.04	10.429
89.26	22.197
89.48	1.638
89.7	17.169
89.92	19.683
