Measurement: Powder, Xray Data XY Processed
Mineral: Mansfieldite
Rruff sample: R060409
Ideal chemistry: AlAs^5+^O_4_2H_2_O
Locality: Djebel Debagh, Constantine, Algeria
Source: Herb Obodda
Description: Pale blue cryptocrystalline mass
Diffraction sample description: Powder
Measured chemistry: (Al_0.98_Fe^3+^_0.02_)_Σ=1_(As_0.97_P_0.03_)_Σ=1_O_4_·2H_2_O
Cell parameters: a: 8.7884(6) b: 9.7928(5) c: 10.0829(4) alpha: 90 beta: 90 gamma: 90 volume: 867.76(6) crystal system: orthorhombic
x	intensity
5	0
5.22	12.9248
5.44	18.2144
5.66	14.6436
5.88	6.31675
6.1	2.4969
6.32	2.8645
6.54	11.0175
6.76	11.03
6.98	1.9996
7.2	3.62236
7.42	7.67074
7.64	6.43891
7.86	14.0638
8.08	6.6701
8.3	10.9188
8.52	19.706
8.74	5.68671
8.96	9.69497
9.18	14.5059
9.4	15.3411
9.62	5.51712
9.84	8.75786
10.06	6.45169
10.28	0.871315
10.5	17.0067
10.72	0.697126
10.94	15.7029
11.16	7.80117
11.38	6.45469
11.6	2.52322
11.82	14.5403
12.04	6.4726
12.26	2.34384
12.48	8.2533
12.7	10.3194
12.92	2.53867
13.14	3.97121
13.36	13.9888
13.58	7.02247
13.8	5.31786
14.02	7.37057
14.24	2.89048
14.46	0.282999
14.68	6.29612
14.9	5.94595
15.12	5.30638
15.34	4.88873
15.56	11.0451
15.78	13.6284
16	29.2448
16.22	551.728
16.44	23.4404
16.66	3.44878
16.88	8.50919
17.1	15.7546
17.32	4.11248
17.54	30.4011
17.76	11.3063
17.98	20.0336
18.2	93.4625
18.42	17.4783
18.64	3.81178
18.86	13.6866
19.08	11.4793
19.3	7.27852
19.52	12.0355
19.74	3.29612
19.96	21.6553
20.18	325.047
20.4	214.184
20.62	4.95509
20.84	10.1941
21.06	2.25017
21.28	3.37632
21.5	1.83581
21.72	15.3916
21.94	19.7667
22.16	38.4998
22.38	71.1095
22.6	19.035
22.82	8.77923
23.04	9.61694
23.26	13.6115
23.48	3.04341
23.7	8.1846
23.92	133.255
24.14	10.2219
24.36	16.1373
24.58	2.04719
24.8	8.18837
25.02	6.26111
25.24	6.88273
25.46	9.36061
25.68	10.4822
25.9	23.002
26.12	7.38197
26.34	10.2129
26.56	5.74331
26.78	7.95097
27	49.8499
27.22	19.5589
27.44	21.8083
27.66	15.2365
27.88	13.4025
28.1	2.97147
28.32	5.75036
28.54	35.6691
28.76	398.411
28.98	35.7097
29.2	8.07889
29.42	16.6822
29.64	11.4305
29.86	228.403
30.08	28.617
30.3	3.12717
30.52	163.341
30.74	9.92178
30.96	1.92702
31.18	3.18369
31.4	2.53409
31.62	4.15887
31.84	10.3361
32.06	3.31901
32.28	9.28727
32.5	2.34156
32.72	12.1645
32.94	7.44495
33.16	81.3967
33.38	5.63704
33.6	1.77857
33.82	13.4154
34.04	31.576
34.26	99.5193
34.48	9.69009
34.7	5.80533
34.92	3.74802
35.14	12.9558
35.36	66.3398
35.58	99.4415
35.8	4.00964
36.02	1.63713
36.24	1.63385
36.46	2.83698
36.68	102.974
36.9	10.2297
37.12	12.5092
37.34	14.5631
37.56	10.7181
37.78	30.1861
38	14.7943
38.22	8.07338
38.44	7.48307
38.66	6.9162
38.88	3.23694
39.1	4.26427
39.32	14.2973
39.54	13.2998
39.76	21.9769
39.98	26.4328
40.2	16.2916
40.42	0.723747
40.64	8.45516
40.86	9.87169
41.08	60.5491
41.3	37.3062
41.52	6.40874
41.74	8.61826
41.96	18.5289
42.18	27.6062
42.4	8.95967
42.62	6.31099
42.84	2.65271
43.06	18.2838
43.28	26.1799
43.5	1.58615
43.72	18.1191
43.94	20.8927
44.16	6.39516
44.38	0.424559
44.6	5.70627
44.82	16.5094
45.04	22.3523
45.26	3.11258
45.48	12.5512
45.7	14.2009
45.92	20.3427
46.14	63.51
46.36	11.6519
46.58	0.755653
46.8	17.9963
47.02	7.68633
47.24	6.61224
47.46	18.9306
47.68	37.0064
47.9	1.07813
48.12	8.4146
48.34	3.51612
48.56	10.6484
48.78	30.9508
49	33.9705
49.22	12.3624
49.44	8.89174
49.66	2.1459
49.88	6.89367
50.1	5.61857
50.32	14.4794
50.54	14.7502
50.76	23.2305
50.98	9.91156
51.2	26.0322
51.42	16.3731
51.64	14.2274
51.86	12.6756
52.08	41.9244
52.3	2.20012
52.52	11.5525
52.74	8.4528
52.96	6.72325
53.18	23.8543
53.4	34.8079
53.62	9.57832
53.84	9.90827
54.06	5.20544
54.28	10.6919
54.5	1.43663
54.72	9.14336
54.94	6.9703
55.16	2.68236
55.38	13.6217
55.6	1.40813
55.82	10.5711
56.04	8.22515
56.26	49.3225
56.48	42.1911
56.7	8.16912
56.92	4.38302
57.14	28.0797
57.36	22.9332
57.58	9.31366
57.8	19.5116
58.02	3.37837
58.24	7.1031
58.46	4.26232
58.68	3.34855
58.9	9.41624
59.12	15.3675
59.34	5.2494
59.56	7.85077
59.78	38.843
60	9.86572
60.22	16.9598
60.44	16.1832
60.66	11.7984
60.88	15.4982
61.1	16.8677
61.32	14.1036
61.54	9.12605
61.76	8.12633
61.98	3.77522
62.2	5.04561
62.42	7.75962
62.64	24.6705
62.86	9.19696
63.08	3.97685
63.3	28.0533
63.52	31.5126
63.74	16.9325
63.96	2.92381
64.18	13.7299
64.4	19.2884
64.62	41.9326
64.84	9.08292
65.06	9.3731
65.28	5.38738
65.5	3.73993
65.72	15.43
65.94	0.439043
66.16	0.801109
66.38	32.1849
66.6	5.75094
66.82	6.3902
67.04	12.9567
67.26	8.243
67.48	2.23978
67.7	0.644341
67.92	1.65743
68.14	5.61773
68.36	24.9363
68.58	32.155
68.8	18.3017
69.02	7.322
69.24	4.76316
69.46	6.45185
69.68	10.8258
69.9	5.76012
70.12	2.35792
70.34	15.0582
70.56	15.6676
70.78	4.63156
71	8.49963
71.22	7.16001
71.44	17.9283
71.66	0.044119
71.88	10.6016
72.1	3.7164
72.32	21.0424
72.54	18.198
72.76	16.808
72.98	11.0185
73.2	5.02965
73.42	4.35762
73.64	5.20012
73.86	0.100359
74.08	8.52534
74.3	16.6172
74.52	5.99754
74.74	17.4572
74.96	14.3198
75.18	6.07314
75.4	2.73169
75.62	9.9859
75.84	2.82359
76.06	9.22243
76.28	7.99094
76.5	14.6427
76.72	12.0278
76.94	19.7676
77.16	8.22507
77.38	3.47607
77.6	5.12895
77.82	2.9462
78.04	2.0784
78.26	8.92275
78.48	24.5724
78.7	6.69588
78.92	10.0792
79.14	14.1635
79.36	20.2792
79.58	7.31269
79.8	1.96138
80.02	7.98206
80.24	6.88409
80.46	13.722
80.68	6.52376
80.9	9.22347
81.12	7.72871
81.34	15.9173
81.56	7.49732
81.78	11.0225
82	10.6911
82.22	12.1598
82.44	2.37019
82.66	6.80884
82.88	1.75659
83.1	13.685
83.32	6.08737
83.54	6.88356
83.76	7.33454
83.98	6.97529
84.2	12.3409
84.42	0.833008
84.64	8.97065
84.86	17.1765
85.08	9.18821
85.3	13.05
85.52	1.01305
85.74	7.05628
85.96	0.93541
86.18	9.31371
86.4	14.1832
86.62	3.90544
86.84	1.35894
87.06	8.40967
87.28	11.2745
87.5	1.8462
87.72	14.1738
87.94	10.1069
88.16	8.25293
88.38	4.99327
88.6	0.937162
88.82	7.85389
89.04	18.0356
89.26	5.43381
89.48	7.68636
89.7	5.99643
89.92	4.45592
