Measurement: Powder, Xray Data XY Processed
Mineral: Marialite
Rruff sample: R060526
Ideal chemistry: Na_4_Al_3_Si_9_O_24_Cl
Locality: Minas Gerais, Brazil
Source: Michael Scott
Description: Heavily striated pale yellow elongated prism
Diffraction sample description: Powder
Measured chemistry: (Na_0.62_Ca_0.33_K_0.05_)_4_(Si_0.66_Al_0.34_)_12_O_24_(Cl_0.77_(CO_3_)_0.23_)
Cell parameters: a: 12.0730(1) b: 12.0730(1) c: 7.5895(1) alpha: 90. beta: 90. gamma: 90. volume: 1106.24(2) crystal system: tetragonal
x	intensity
5	0
5.22	18.2172
5.44	13.7622
5.66	13.2802
5.88	14.926
6.1	2.73518
6.32	2.2361
6.54	16.4643
6.76	8.49177
6.98	9.5344
7.2	0.492728
7.42	8.78307
7.64	2.59173
7.86	2.49562
8.08	14.3073
8.3	3.35353
8.52	3.20863
8.74	7.34596
8.96	8.84722
9.18	6.14193
9.4	9.41078
9.62	9.58979
9.84	4.52332
10.06	0.415304
10.28	7.76749
10.5	9.89435
10.72	10.3755
10.94	7.6764
11.16	4.02906
11.38	7.01006
11.6	5.5436
11.82	0.255345
12.04	3.9248
12.26	1.99848
12.48	10.046
12.7	1.09167
12.92	2.26594
13.14	5.26631
13.36	9.18105
13.58	2.91502
13.8	47.1393
14.02	5.86234
14.24	2.97843
14.46	5.06557
14.68	35.1517
14.9	3.26135
15.12	5.33821
15.34	7.44337
15.56	4.67963
15.78	3.85118
16	0.953065
16.22	2.88643
16.44	2.70926
16.66	0.137119
16.88	8.05991
17.1	2.19552
17.32	0.175199
17.54	3.23701
17.76	4.158
17.98	4.20668
18.2	0.396033
18.42	4.40664
18.64	5.53142
18.86	12.4748
19.08	0.257083
19.3	1.32333
19.52	1.21245
19.74	2.17728
19.96	7.13196
20.18	4.16729
20.4	5.19886
20.62	4.90656
20.84	32.9693
21.06	8.92722
21.28	1.00162
21.5	1.05128
21.72	5.05682
21.94	4.12913
22.16	4.128
22.38	2.12969
22.6	4.97529
22.82	1.90874
23.04	4.99108
23.26	33.0414
23.48	12.9654
23.7	1.97637
23.92	15.6579
24.14	4.43817
24.36	1.22731
24.58	6.98177
24.8	3.7314
25.02	21.4561
25.24	8.25582
25.46	9.03817
25.68	168.731
25.9	30.8568
26.12	8.87193
26.34	12.4223
26.56	2.52979
26.78	4.58837
27	2.74367
27.22	2.03941
27.44	1.23219
27.66	6.2949
27.88	3.20806
28.1	9.0224
28.32	7.51928
28.54	11.1538
28.76	7.61298
28.98	10.5275
29.2	481.401
29.42	20.6108
29.64	257.765
29.86	6.84391
30.08	8.04788
30.3	5.28906
30.52	11.4628
30.74	5.62769
30.96	0.930168
31.18	8.19275
31.4	9.25091
31.62	12.246
31.84	2.77576
32.06	2.58827
32.28	2.61226
32.5	4.19445
32.72	1.04391
32.94	10.1661
33.16	13.4874
33.38	102.572
33.6	9.5829
33.82	5.78816
34.04	6.08973
34.26	1.66466
34.48	3.71385
34.7	3.94719
34.92	3.3149
35.14	4.57511
35.36	7.61186
35.58	3.59251
35.8	1.56795
36.02	4.64294
36.24	2.96541
36.46	4.92891
36.68	1.95482
36.9	1.78072
37.12	9.73051
37.34	0.475121
37.56	2.69368
37.78	5.71169
38	7.51205
38.22	8.43189
38.44	0.326819
38.66	4.98244
38.88	4.91727
39.1	8.05074
39.32	4.00478
39.54	7.96305
39.76	2.84389
39.98	3.53041
40.2	5.48143
40.42	1.85804
40.64	2.03523
40.86	4.93722
41.08	24.7654
41.3	2.57728
41.52	0.318968
41.74	10.2109
41.96	1.19121
42.18	36.1005
42.4	14.1964
42.62	3.99873
42.84	0.871742
43.06	6.37642
43.28	3.4772
43.5	7.56657
43.72	12.6667
43.94	4.78231
44.16	1.09759
44.38	5.99277
44.6	6.07245
44.82	4.1455
45.04	28.2308
45.26	20.2669
45.48	2.90094
45.7	5.89265
45.92	0.765708
46.14	2.62408
46.36	1.52769
46.58	1.30063
46.8	8.01274
47.02	3.8464
47.24	11.6987
47.46	45.7429
47.68	61.5042
47.9	17.5214
48.12	29.8087
48.34	7.07214
48.56	1.22658
48.78	2.37767
49	5.67521
49.22	1.14557
49.44	0.074436
49.66	5.33648
49.88	12.237
50.1	6.17768
50.32	15.1444
50.54	3.86683
50.76	4.00296
50.98	5.06612
51.2	7.01164
51.42	5.82828
51.64	1.79772
51.86	3.73072
52.08	2.52118
52.3	4.5184
52.52	6.48012
52.74	0.445149
52.96	7.73821
53.18	5.46391
53.4	0.548185
53.62	7.61822
53.84	25.6974
54.06	4.75584
54.28	0.962831
54.5	1.14495
54.72	17.154
54.94	5.21712
55.16	9.25338
55.38	3.22472
55.6	0.270169
55.82	2.08273
56.04	1.01405
56.26	1.92785
56.48	1.8699
56.7	6.59058
56.92	4.53271
57.14	3.44661
57.36	32.3508
57.58	10.4052
57.8	6.2817
58.02	2.23571
58.24	0.275904
58.46	4.39671
58.68	4.58673
58.9	8.79214
59.12	24.1055
59.34	40.0616
59.56	14.1598
59.78	4.34692
60	0.615468
60.22	6.32289
60.44	2.30164
60.66	5.3559
60.88	1.40621
61.1	4.26267
61.32	37.2202
61.54	5.9009
61.76	8.99908
61.98	2.03031
62.2	0.867226
62.42	6.81427
62.64	4.81796
62.86	1.16178
63.08	6.98646
63.3	9.95408
63.52	8.22715
63.74	20.0094
63.96	2.03924
64.18	4.08402
64.4	6.96924
64.62	4.97291
64.84	5.92333
65.06	3.9428
65.28	11.5016
65.5	29.1567
65.72	17.0268
65.94	9.64883
66.16	1.84448
66.38	7.67994
66.6	4.29099
66.82	10.0576
67.04	3.02069
67.26	6.85345
67.48	3.61912
67.7	13.8504
67.92	13.96
68.14	3.03489
68.36	8.22994
68.58	8.01159
68.8	12.0644
69.02	13.3192
69.24	4.6553
69.46	3.77383
69.68	10.8927
69.9	25.072
70.12	5.57051
70.34	0.469251
70.56	0.549055
70.78	4.3278
71	3.54107
71.22	6.78404
71.44	5.1209
71.66	14.1327
71.88	7.19825
72.1	3.4832
72.32	4.52452
72.54	6.21379
72.76	3.1686
72.98	3.20036
73.2	4.2476
73.42	5.16993
73.64	9.85963
73.86	8.55336
74.08	2.3311
74.3	0.943455
74.52	11.9613
74.74	2.93841
74.96	4.95219
75.18	3.03888
75.4	1.33903
75.62	10.2977
75.84	3.38358
76.06	7.68894
76.28	6.118
76.5	7.45758
76.72	5.71093
76.94	5.02767
77.16	2.26241
77.38	5.38747
77.6	3.39673
77.82	0.748446
78.04	0.257567
78.26	8.22865
78.48	0.858988
78.7	2.76682
78.92	1.66606
79.14	0.483529
79.36	3.30631
79.58	9.32691
79.8	6.39599
80.02	5.58707
80.24	0.401676
80.46	2.67115
80.68	4.63371
80.9	4.57663
81.12	0.550639
81.34	7.43487
81.56	3.2783
81.78	2.13822
82	2.80558
82.22	3.50671
82.44	4.18817
82.66	0.082705
82.88	3.1401
83.1	1.21124
83.32	8.28717
83.54	5.35509
83.76	0.413836
83.98	3.54197
84.2	7.63406
84.42	7.72975
84.64	6.94009
84.86	6.18382
85.08	9.27188
85.3	1.09909
85.52	8.16997
85.74	7.1788
85.96	11.1106
86.18	9.12799
86.4	8.20967
86.62	3.352
86.84	4.2713
87.06	0.67205
87.28	4.36489
87.5	3.37381
87.72	2.4855
87.94	0.481997
88.16	1.60017
88.38	5.60099
88.6	1.70012
88.82	7.45716
89.04	4.59893
89.26	8.5203
89.48	1.56707
89.7	0.907062
89.92	7.67648
