Measurement: Powder, Xray Data XY Processed
Mineral: Marialite
Rruff sample: R050123
Ideal chemistry: Na_4_Al_3_Si_9_O_24_Cl
Locality: Pakistan
Source: Syed Shah
Description: Purple fragment
Diffraction sample description: Powder
Measured chemistry: (Na_0.88_Ca_0.07_K_0.05_)_4_Al_3.00_Si_9.00_O_24_Cl_0.97
Cell parameters: a: 12.04932(38) b: 12.04932(38) c: 7.56503(53) alpha: 90.0 beta: 90.0 gamma: 90.0 volume: 1098.338(89) crystal system: tetragonal
x	intensity
5	0
5.22	17.943
5.44	17.08
5.66	15.917
5.88	2.135
6.1	3.844
6.32	5.662
6.54	7.78
6.76	1.521
6.98	2.486
7.2	5.755
7.42	7.603
7.64	6.432
7.86	5.132
8.08	8.717
8.3	9.987
8.52	8.385
8.74	1.029
8.96	4.198
9.18	1.261
9.4	5.032
9.62	4.174
9.84	5.167
10.06	11.173
10.28	3.241
10.5	5.345
10.72	10.539
10.94	7.537
11.16	6.598
11.38	5.846
11.6	13.561
11.82	11.008
12.04	8.652
12.26	6.709
12.48	7.706
12.7	7.738
12.92	3.616
13.14	4.717
13.36	10.685
13.58	5.401
13.8	76.252
14.02	3.507
14.24	2.206
14.46	5.303
14.68	35.282
14.9	3.473
15.12	6.644
15.34	1.815
15.56	3.734
15.78	4.899
16	10.644
16.22	4.782
16.44	3.976
16.66	7.256
16.88	1.327
17.1	7.501
17.32	4.488
17.54	1.937
17.76	6.005
17.98	7.283
18.2	3.119
18.42	8.769
18.64	7.763
18.86	9.99
19.08	8.021
19.3	4.92
19.52	6.781
19.74	5.642
19.96	14.015
20.18	3.608
20.4	1.395
20.62	0.437
20.84	115.521
21.06	15.331
21.28	3.858
21.5	0.328
21.72	2.456
21.94	3.41
22.16	2.266
22.38	3.156
22.6	7.091
22.82	5.375
23.04	13.315
23.26	42.085
23.48	19.278
23.7	8.483
23.92	6.304
24.14	7.223
24.36	3.155
24.58	1.987
24.8	5.792
25.02	22.598
25.24	13.022
25.46	10.672
25.68	37.467
25.9	63.446
26.12	18.052
26.34	34.258
26.56	6.381
26.78	11.263
27	2.878
27.22	10.886
27.44	5.214
27.66	5.177
27.88	13.956
28.1	2.21
28.32	3.318
28.54	6.122
28.76	2.805
28.98	18.573
29.2	1033.84
29.42	27.55
29.64	224.178
29.86	13.107
30.08	10.406
30.3	4.783
30.52	2.937
30.74	0.079
30.96	0.235
31.18	0.756
31.4	0.501
31.62	45.058
31.84	5.723
32.06	0.995
32.28	5.87
32.5	0.838
32.72	7.964
32.94	60.061
33.16	14.538
33.38	463.957
33.6	8.168
33.82	11.582
34.04	6.951
34.26	5.329
34.48	4.742
34.7	4.391
34.92	2.295
35.14	8.792
35.36	6.081
35.58	8.972
35.8	2.076
36.02	11.097
36.24	4.17
36.46	1.461
36.68	6.614
36.9	12.493
37.12	3.23
37.34	6.207
37.56	5.25
37.78	2.396
38	1.322
38.22	10.989
38.44	10.798
38.66	2.661
38.88	3.376
39.1	12.44
39.32	41.388
39.54	18.371
39.76	17.414
39.98	6.153
40.2	5.944
40.42	1.145
40.64	5.383
40.86	4.489
41.08	2.5
41.3	6.425
41.52	1.751
41.74	4.324
41.96	2.49
42.18	13.473
42.4	25.598
42.62	9.721
42.84	3.677
43.06	0.674
43.28	15.714
43.5	9.056
43.72	5.251
43.94	8.29
44.16	6.074
44.38	0.924
44.6	8.149
44.82	4.228
45.04	73.001
45.26	12.716
45.48	8.665
45.7	1.445
45.92	9.499
46.14	5.079
46.36	2.785
46.58	1.465
46.8	8.299
47.02	6.826
47.24	5.399
47.46	132.274
47.68	43.389
47.9	20.399
48.12	74.554
48.34	6.417
48.56	8.186
48.78	2.472
49	7.708
49.22	1.936
49.44	3.145
49.66	8.479
49.88	8.958
50.1	4.698
50.32	43.785
50.54	3.591
50.76	2.963
50.98	3.679
51.2	2.662
51.42	1.689
51.64	31.721
51.86	1.224
52.08	5.066
52.3	45.114
52.52	93.078
52.74	8.096
52.96	7.243
53.18	4.131
53.4	3.064
53.62	9.993
53.84	19.037
54.06	0.109
54.28	5.235
54.5	7.022
54.72	6.803
54.94	51.443
55.16	5.761
55.38	8.746
55.6	1.163
55.82	0.241
56.04	6.785
56.26	2.96
56.48	1.919
56.7	3.829
56.92	122.009
57.14	14.018
57.36	1.422
57.58	10.168
57.8	7.445
58.02	2.447
58.24	4.385
58.46	7.332
58.68	3.149
58.9	3.413
59.12	1.564
59.34	22.354
59.56	8.264
59.78	2.283
60	3.637
60.22	2.461
60.44	6.493
60.66	7.602
60.88	5.88
61.1	8.445
61.32	13.316
61.54	12.317
61.76	6.623
61.98	4.611
62.2	6.524
62.42	4.009
62.64	1.879
62.86	1.715
63.08	15.537
63.3	9.301
63.52	8.794
63.74	56.85
63.96	15.68
64.18	4.691
64.4	8.794
64.62	6.779
64.84	0.232
65.06	0.253
65.28	2.86
65.5	0.039
65.72	46.916
65.94	14.628
66.16	16.66
66.38	9.114
66.6	7.964
66.82	5.656
67.04	4.484
67.26	0.358
67.48	4.239
67.7	21.858
67.92	3.51
68.14	24.303
68.36	8.732
68.58	6.813
68.8	34.817
69.02	54.414
69.24	0.807
69.46	0.979
69.68	1.288
69.9	2.435
70.12	16.278
70.34	5.392
70.56	13.46
70.78	1766.89
71	811.738
71.22	8.301
71.44	1.793
71.66	33.551
71.88	40.119
72.1	0.659
72.32	5.28
72.54	0.754
72.76	3.916
72.98	6.26
73.2	6.653
73.42	0.177
73.64	32.9
73.86	20.925
74.08	7.641
74.3	4.571
74.52	1.577
74.74	6.47
74.96	11.546
75.18	9.81
75.4	1.914
75.62	6.809
75.84	7.602
76.06	2.771
76.28	2.917
76.5	3.079
76.72	1.549
76.94	3.75
77.16	4.188
77.38	6.4
77.6	7.515
77.82	6.698
78.04	0.937
78.26	5.093
78.48	2.07
78.7	7.178
78.92	10.148
79.14	4.892
79.36	3.762
79.58	1.755
79.8	1.553
80.02	11.394
80.24	10.259
80.46	1.957
80.68	2.219
80.9	3.959
81.12	4.801
81.34	111.892
81.56	67.753
81.78	5.21
82	0.913
82.22	0.252
82.44	0.804
82.66	4.864
82.88	5.174
83.1	3.361
83.32	9.134
83.54	11.362
83.76	11.295
83.98	1.538
84.2	4.107
84.42	3.24
84.64	8.324
84.86	3.77
85.08	6.833
85.3	3.72
85.52	1.248
85.74	2.837
85.96	9.885
86.18	2.915
86.4	5.188
86.62	11.455
86.84	1.543
87.06	3.764
87.28	13.459
87.5	5.563
87.72	0.642
87.94	4.65
88.16	4.669
88.38	1.802
88.6	6.097
88.82	4.176
89.04	8.143
89.26	7.304
89.48	4.66
89.7	1.571
89.92	4.517
