Measurement: Powder, Xray Data XY Processed
Mineral: Marokite
Rruff sample: R060829
Ideal chemistry: CaMn^3+^_2_O_4_
Locality: Tachguagalt, Morocco
Source: Michael Scott
Description: Black with carmine-red internal reflections, massive
Diffraction sample description: Powder
Measured chemistry: Ca_1.00_Mn^3+^_2.00_O_4_
Cell parameters: a: 3.15927(8) b: 9.994(1) c: 9.6794(5) alpha: 90 beta: 90 gamma: 90 volume: 305.60(3) crystal system: orthorhombic
x	intensity
5	0
5.22	9.18448
5.44	22.1808
5.66	15.4044
5.88	9.09262
6.1	28.6258
6.32	1.41246
6.54	8.42014
6.76	31.7122
6.98	9.21281
7.2	4.73452
7.42	13.2308
7.64	5.485
7.86	12.628
8.08	15.6121
8.3	10.2903
8.52	4.22068
8.74	3.78061
8.96	20.5126
9.18	7.70073
9.4	17.4364
9.62	19.6084
9.84	14.5915
10.06	8.54804
10.28	14.4465
10.5	1.25392
10.72	5.19283
10.94	18.0078
11.16	19.0122
11.38	13.0841
11.6	2.26518
11.82	15.9178
12.04	9.74894
12.26	7.28086
12.48	17.1845
12.7	18.788
12.92	14.3868
13.14	31.1017
13.36	17.0738
13.58	20.9315
13.8	8.07561
14.02	16.5642
14.24	6.19803
14.46	19.7369
14.68	1.48796
14.9	10.9923
15.12	12.8123
15.34	0.845509
15.56	10.8585
15.78	17.6972
16	11.8413
16.22	12.5754
16.44	2.87582
16.66	20.4036
16.88	3.89471
17.1	6.7044
17.32	12.6738
17.54	14.9162
17.76	7.27159
17.98	2.97677
18.2	16.3154
18.42	13.3561
18.64	0.669384
18.86	13.5466
19.08	16.2184
19.3	16.1148
19.52	19.2429
19.74	13.7105
19.96	8.81728
20.18	7.17658
20.4	2.68746
20.62	7.69071
20.84	15.6908
21.06	7.3147
21.28	16.7691
21.5	8.80281
21.72	1.82953
21.94	5.21517
22.16	6.59608
22.38	0.941189
22.6	6.44393
22.82	4.07717
23.04	3.34674
23.26	13.4394
23.48	19.666
23.7	8.70675
23.92	16.9395
24.14	11.164
24.36	21.9636
24.58	14.9884
24.8	0.519131
25.02	13.2059
25.24	8.16483
25.46	3.51633
25.68	18.3212
25.9	21.1155
26.12	27.9381
26.34	4.95115
26.56	7.20159
26.78	9.48235
27	13.2718
27.22	1.41983
27.44	16.3636
27.66	13.2951
27.88	3.16908
28.1	13.7591
28.32	6.39555
28.54	2.90895
28.76	23.659
28.98	10.3841
29.2	14.7205
29.42	8.05663
29.64	60.9917
29.86	2.8441
30.08	15.5691
30.3	18.7565
30.52	9.18833
30.74	3.64178
30.96	24.3009
31.18	48.0905
31.4	5.14776
31.62	10.1626
31.84	10.5942
32.06	3.20925
32.28	12.5419
32.5	36.5169
32.72	7.16876
32.94	23.9229
33.16	27.1937
33.38	19.013
33.6	15.9817
33.82	8.89366
34.04	18.7908
34.26	12.5776
34.48	8.4324
34.7	15.2479
34.92	10.3561
35.14	39.9485
35.36	9.59653
35.58	20.5772
35.8	9.43897
36.02	33.7826
36.24	17.7286
36.46	10.7808
36.68	14.2738
36.9	12.4525
37.12	18.7902
37.34	12.382
37.56	16.8226
37.78	15.0059
38	7.28666
38.22	22.9238
38.44	5.66056
38.66	3.27911
38.88	3.76869
39.1	8.70778
39.32	41.684
39.54	2.60949
39.76	0.408249
39.98	0.302391
40.2	21.1273
40.42	90.8133
40.64	16.8559
40.86	14.6084
41.08	9.30546
41.3	8.49947
41.52	12.3903
41.74	13.8115
41.96	3.08374
42.18	21.9947
42.4	8.26957
42.62	20.1502
42.84	11.2341
43.06	14.5818
43.28	4.68499
43.5	5.65464
43.72	31.1682
43.94	12.4248
44.16	2.47803
44.38	11.4488
44.6	7.72355
44.82	12.455
45.04	16.2257
45.26	20.6136
45.48	20.5722
45.7	16.597
45.92	15.7378
46.14	12.0972
46.36	0.819733
46.58	7.35164
46.8	7.35589
47.02	13.3428
47.24	4.46521
47.46	26.1125
47.68	7.35146
47.9	13.474
48.12	16.2154
48.34	6.6469
48.56	9.21612
48.78	8.21957
49	2.67432
49.22	8.27698
49.44	8.7853
49.66	9.44969
49.88	6.2011
50.1	8.56939
50.32	16.8934
50.54	9.91512
50.76	5.09293
50.98	17.996
51.2	9.02744
51.42	20.5809
51.64	12.8817
51.86	10.3407
52.08	8.08209
52.3	22.4437
52.52	8.95367
52.74	3.51708
52.96	1.71885
53.18	1.2709
53.4	5.88042
53.62	7.92276
53.84	12.724
54.06	6.63253
54.28	8.89171
54.5	9.52882
54.72	22.2855
54.94	10.0146
55.16	17.824
55.38	6.60904
55.6	5.37876
55.82	10.1571
56.04	3.30175
56.26	21.5035
56.48	52.2575
56.7	20.4886
56.92	9.32902
57.14	10.3817
57.36	16.8351
57.58	7.60454
57.8	24.4353
58.02	4.1696
58.24	2.72161
58.46	0.391613
58.68	27.12
58.9	4.25276
59.12	18.5276
59.34	31.8827
59.56	23.95
59.78	3.18202
60	13.3041
60.22	8.75633
60.44	1.3194
60.66	21.5478
60.88	13.8359
61.1	20.0363
61.32	17.888
61.54	13.6118
61.76	19.9885
61.98	31.8743
62.2	11.8146
62.42	17.8401
62.64	11.1499
62.86	24.4928
63.08	0.454727
63.3	1.14418
63.52	15.2652
63.74	11.4277
63.96	21.6798
64.18	12.928
64.4	12.2052
64.62	14.1627
64.84	17.2675
65.06	5.84232
65.28	10.9227
65.5	7.77687
65.72	13.6948
65.94	18.6812
66.16	13.6815
66.38	3.0377
66.6	12.9339
66.82	11.1066
67.04	7.04099
67.26	8.75854
67.48	10.4031
67.7	2.04726
67.92	11.9559
68.14	11.0215
68.36	26.4637
68.58	14.5811
68.8	24.2727
69.02	13.0146
69.24	21.3382
69.46	22.6727
69.68	1.70742
69.9	10.5096
70.12	8.23973
70.34	20.463
70.56	11.6769
70.78	15.3686
71	7.28671
71.22	8.28947
71.44	19.9914
71.66	15.2597
71.88	9.97207
72.1	17.0866
72.32	2.97329
72.54	13.2505
72.76	6.81302
72.98	1.31836
73.2	20.0735
73.42	14.1089
73.64	6.23925
73.86	12.7014
74.08	12.7439
74.3	28.1188
74.52	17.3365
74.74	12.5414
74.96	26.674
75.18	0.233025
75.4	19.7774
75.62	6.3323
75.84	12.0731
76.06	0.224155
76.28	6.0414
76.5	0.398869
76.72	8.89716
76.94	16.6347
77.16	14.4372
77.38	6.32992
77.6	1.13603
77.82	13.1063
78.04	13.5675
78.26	11.6364
78.48	9.33677
78.7	12.4128
78.92	0.872478
79.14	13.7984
79.36	22.9685
79.58	18.3023
79.8	1.71477
80.02	20.7131
80.24	7.39622
80.46	8.38298
80.68	16.3909
80.9	8.59838
81.12	26.6542
81.34	9.8437
81.56	8.40206
81.78	4.69055
82	1.15904
82.22	10.1931
82.44	0.413055
82.66	6.73761
82.88	13.6945
83.1	20.695
83.32	15.6506
83.54	8.69224
83.76	16.4367
83.98	8.86808
84.2	6.80861
84.42	15.7361
84.64	8.20105
84.86	7.63818
85.08	3.61035
85.3	17.1613
85.52	4.07846
85.74	5.58512
85.96	13.32
86.18	9.24677
86.4	8.13346
86.62	7.64886
86.84	6.83377
87.06	9.03238
87.28	2.43865
87.5	13.6506
87.72	22.9902
87.94	5.32597
88.16	12.9514
88.38	11.3508
88.6	14.4984
88.82	15.3056
89.04	17.6537
89.26	5.85413
89.48	8.55004
89.7	26.823
89.92	0.50816
