Measurement: Powder, Xray Data XY Processed
Mineral: Meliphanite
Rruff sample: R060786
Ideal chemistry: Ca_4_(Na,Ca)_4_Be_4_AlSi_7_O_24_(F,O)_4_
Locality: Brevig, Norway
Source: Michael Scott
Description: Greenish-yellow tabular crystal
Diffraction sample description: Powder
Cell parameters: a: 10.5260(3) b: 10.5260(3) c: 9.8908(3) alpha: 90 beta: 90 gamma: 90 volume: 1095.87(6) crystal system: tetragonal
x	intensity
5	0
5.22	0.238363
5.44	6.42164
5.66	8.0005
5.88	2.71317
6.1	0.596527
6.32	1.32763
6.54	10.0197
6.76	9.06847
6.98	11.0219
7.2	10.6896
7.42	3.04948
7.64	7.8167
7.86	0.515703
8.08	9.94172
8.3	1.51658
8.52	0.419151
8.74	1.80886
8.96	9.25188
9.18	3.35245
9.4	4.55253
9.62	8.93034
9.84	3.25595
10.06	0.478932
10.28	4.98995
10.5	7.24619
10.72	3.59176
10.94	7.32394
11.16	1.38611
11.38	3.50378
11.6	6.80643
11.82	9.83051
12.04	1.99806
12.26	22.1467
12.48	5.06644
12.7	2.20795
12.92	5.32645
13.14	7.27616
13.36	1.35918
13.58	6.56996
13.8	0.731003
14.02	8.63886
14.24	0.118896
14.46	1.75481
14.68	9.76307
14.9	1.24249
15.12	6.5614
15.34	3.42718
15.56	2.4378
15.78	4.43522
16	3.46762
16.22	2.31925
16.44	1.35946
16.66	10.1795
16.88	21.135
17.1	0.092291
17.32	1.09495
17.54	9.16286
17.76	8.33173
17.98	40.3181
18.2	2.43148
18.42	5.44455
18.64	1.70651
18.86	1.66512
19.08	0.8342
19.3	1.92136
19.52	4.96176
19.74	0.02801
19.96	7.87751
20.18	3.75765
20.4	4.89836
20.62	6.64595
20.84	15.6442
21.06	12.562
21.28	6.38804
21.5	6.56171
21.72	5.6351
21.94	2.64448
22.16	6.72456
22.38	4.84755
22.6	3.94588
22.82	4.85211
23.04	1.95921
23.26	5.78166
23.48	3.67946
23.7	1.42803
23.92	3.30715
24.14	0.776991
24.36	5.22961
24.58	18.0722
24.8	48.1834
25.02	6.20341
25.24	4.11021
25.46	2.35098
25.68	1.4878
25.9	10.5345
26.12	6.66913
26.34	3.91108
26.56	1.13716
26.78	9.7578
27	9.59812
27.22	3.48915
27.44	6.40725
27.66	0.339332
27.88	0.027479
28.1	6.81183
28.32	4.71948
28.54	3.43476
28.76	1.00741
28.98	2.79976
29.2	1.3597
29.42	3.40505
29.64	3.27063
29.86	7.20256
30.08	143.522
30.3	10.5765
30.52	11.4403
30.74	5.43019
30.96	3.28054
31.18	3.09678
31.4	4.90307
31.62	5.66847
31.84	1.42783
32.06	9.2015
32.28	40.7825
32.5	276.385
32.72	12.0604
32.94	3.11376
33.16	26.1883
33.38	3.63846
33.6	0.928691
33.82	7.5503
34.04	15.0344
34.26	4.48952
34.48	2.97372
34.7	2.58989
34.92	0.775558
35.14	8.19531
35.36	7.31487
35.58	2.37148
35.8	9.18884
36.02	4.23061
36.24	6.10286
36.46	2.89861
36.68	6.78216
36.9	1.50637
37.12	10.2529
37.34	7.6648
37.56	4.34579
37.78	7.15932
38	0.924311
38.22	39.0068
38.44	33.9184
38.66	18.3077
38.88	44.3924
39.1	4.46137
39.32	1.55182
39.54	2.52815
39.76	9.62002
39.98	1.68756
40.2	0.730121
40.42	15.9497
40.64	46.7786
40.86	18.0604
41.08	8.70725
41.3	2.73592
41.52	0.764198
41.74	2.95563
41.96	10.2599
42.18	7.32516
42.4	7.54565
42.62	15.9413
42.84	3.83593
43.06	5.04133
43.28	2.57017
43.5	7.44635
43.72	5.44172
43.94	8.42534
44.16	3.18477
44.38	3.07291
44.6	2.88143
44.82	1.32425
45.04	8.42598
45.26	5.52677
45.48	11.5457
45.7	163.554
45.92	18.818
46.14	2.92905
46.36	6.89868
46.58	1.98357
46.8	3.92039
47.02	5.27254
47.24	2.37624
47.46	2.46258
47.68	2.34629
47.9	0.317824
48.12	4.38445
48.34	1.25201
48.56	8.35352
48.78	4.44261
49	13.4291
49.22	1.47782
49.44	3.1948
49.66	6.13374
49.88	5.18704
50.1	8.25492
50.32	0.223038
50.54	21.367
50.76	13.2097
50.98	4.97074
51.2	3.82663
51.42	2.79365
51.64	6.85853
51.86	7.80249
52.08	21.9792
52.3	7.98848
52.52	9.69096
52.74	1.48037
52.96	1.2735
53.18	1.79697
53.4	0.78109
53.62	17.1854
53.84	45.6198
54.06	25.3949
54.28	7.35929
54.5	7.11447
54.72	0.06074
54.94	1.08124
55.16	31.3169
55.38	7.42853
55.6	7.62741
55.82	6.81375
56.04	5.01375
56.26	6.69377
56.48	2.98519
56.7	2.28141
56.92	4.67789
57.14	2.79661
57.36	14.8475
57.58	7.83969
57.8	3.91352
58.02	3.93441
58.24	3.11181
58.46	5.3416
58.68	24.2471
58.9	3.46955
59.12	3.52397
59.34	5.38305
59.56	2.6003
59.78	2.66268
60	0.272645
60.22	0.653786
60.44	9.60009
60.66	2.39393
60.88	4.21303
61.1	0.896791
61.32	0.095263
61.54	3.86144
61.76	6.72905
61.98	6.48407
62.2	1.41872
62.42	3.49449
62.64	7.57081
62.86	56.5999
63.08	36.5604
63.3	0.68862
63.52	4.88735
63.74	5.70473
63.96	6.75953
64.18	4.81704
64.4	3.88856
64.62	2.89057
64.84	1.82442
65.06	1.87837
65.28	4.11813
65.5	5.29275
65.72	2.14795
65.94	1.01848
66.16	4.01211
66.38	10.0486
66.6	5.34589
66.82	19.2726
67.04	10.2227
67.26	13.0543
67.48	7.84024
67.7	3.77648
67.92	5.68128
68.14	0.738776
68.36	3.81315
68.58	2.82528
68.8	1.76458
69.02	4.54928
69.24	8.94591
69.46	13.0271
69.68	12.0132
69.9	4.98915
70.12	0.863401
70.34	0.343471
70.56	9.69939
70.78	15.602
71	6.90123
71.22	5.96679
71.44	3.87332
71.66	5.5087
71.88	9.79896
72.1	7.92626
72.32	3.97897
72.54	0.151772
72.76	0.451292
72.98	3.52601
73.2	3.67802
73.42	7.40543
73.64	5.38848
73.86	4.47519
74.08	5.37451
74.3	7.45284
74.52	10.4447
74.74	7.5071
74.96	0.481049
75.18	2.80941
75.4	4.83091
75.62	1.91457
75.84	8.96449
76.06	8.01463
76.28	4.01746
76.5	17.9335
76.72	10.8829
76.94	9.06283
77.16	10.0856
77.38	3.84597
77.6	0.784057
77.82	1.86525
78.04	5.84923
78.26	7.71878
78.48	16.5619
78.7	3.40873
78.92	2.33124
79.14	0.21203
79.36	8.30294
79.58	6.38913
79.8	15.505
80.02	8.64928
80.24	6.85985
80.46	4.96858
80.68	12.4236
80.9	4.67008
81.12	7.82135
81.34	3.92558
81.56	2.95778
81.78	5.94326
82	6.81724
82.22	3.83928
82.44	4.88373
82.66	0.033945
82.88	6.89968
83.1	3.62366
83.32	6.72453
83.54	3.66507
83.76	2.72863
83.98	1.36393
84.2	2.57674
84.42	4.44863
84.64	8.43711
84.86	7.3223
85.08	3.25237
85.3	3.29203
85.52	5.47492
85.74	8.40686
85.96	9.33133
86.18	2.46026
86.4	4.53555
86.62	1.5644
86.84	4.61071
87.06	6.58344
87.28	2.45231
87.5	3.39954
87.72	1.28045
87.94	5.06854
88.16	1.93157
88.38	4.66672
88.6	4.14208
88.82	1.73102
89.04	6.33823
89.26	8.13933
89.48	20.6201
89.7	4.9333
89.92	7.51156
