Measurement: Powder, Xray Data XY Processed
Mineral: Mellite
Rruff sample: R070574
Ideal chemistry: Al_2_C_6_(COO)_6_16H_2_O
Locality: Tuscany, Italy
Source: James Shigley
Description: Pale yellow prismatic crystal fragment
Diffraction sample description: Powder
Measured chemistry: (Al_1.95_Fe^3+^_0.05_)_Σ=2_C_6_(COO)_6_·16H_2_O; CO_2_ and H_2_O from stoichiometry
Cell parameters: a: 15.5495(2) b: 15.5495(2) c: 23.2011(7) alpha: 90 beta: 90 gamma: 90 volume: 5609.7(2) crystal system: tetragonal
x	intensity
5	0
5.22	11.2684
5.44	26.7479
5.66	0.214409
5.88	9.52145
6.1	11.5616
6.32	14.7115
6.54	11.0999
6.76	5.38309
6.98	11.643
7.2	13.43
7.42	4.00881
7.64	6.63269
7.86	17.1359
8.08	20.4642
8.3	19.8159
8.52	3.44978
8.74	28.2321
8.96	4.2036
9.18	13.3037
9.4	22.6666
9.62	16.8562
9.84	3.01354
10.06	24.712
10.28	2.993
10.5	17.1221
10.72	39.9544
10.94	100.84
11.16	336.36
11.38	242.058
11.6	16.6353
11.82	4.28119
12.04	19.892
12.26	16.6972
12.48	17.9434
12.7	15.5997
12.92	35.6471
13.14	2.68578
13.36	39.6177
13.58	6.10792
13.8	65.2215
14.02	10.276
14.24	29.9288
14.46	2.34164
14.68	39.017
14.9	11.1745
15.12	42.5401
15.34	430.114
15.56	36.5381
15.78	17.4992
16	26.9243
16.22	32.2846
16.44	26.9606
16.66	31.3691
16.88	3.32809
17.1	233.235
17.32	19.3993
17.54	1.01086
17.76	42.4121
17.98	16.2283
18.2	7.00489
18.42	15.1369
18.64	31.5774
18.86	3.05328
19.08	17.062
19.3	28.9342
19.52	21.6796
19.74	10.2103
19.96	18.842
20.18	12.5121
20.4	24.5136
20.62	25.5493
20.84	61.2253
21.06	91.3328
21.28	4.96477
21.5	22.5969
21.72	17.1201
21.94	1.2932
22.16	19.877
22.38	33.4129
22.6	1.0517
22.82	0.855865
23.04	191.919
23.26	6.37745
23.48	20.2372
23.7	28.0768
23.92	167.349
24.14	381.649
24.36	9.02937
24.58	4.147
24.8	0.173737
25.02	8.83411
25.24	2.32388
25.46	120.967
25.68	167.635
25.9	49.5521
26.12	27.6275
26.34	298.097
26.56	19.0033
26.78	24.1283
27	30.3303
27.22	7.35961
27.44	15.485
27.66	26.5868
27.88	21.2995
28.1	17.8339
28.32	1.5558
28.54	28.2709
28.76	14.4194
28.98	105.251
29.2	1.35664
29.42	14.5603
29.64	11.8784
29.86	333.677
30.08	52.5535
30.3	49.5048
30.52	23.1615
30.74	27.6386
30.96	49.967
31.18	4.57271
31.4	8.80839
31.62	4.14362
31.84	27.4482
32.06	2.34752
32.28	8.39682
32.5	6.80759
32.72	93.2238
32.94	7.00163
33.16	37.2114
33.38	5.74168
33.6	34.2024
33.82	7.14909
34.04	21.0839
34.26	6.85493
34.48	55.701
34.7	361.248
34.92	23.3599
35.14	15.395
35.36	6.83058
35.58	10.7336
35.8	3.43654
36.02	34.4831
36.24	24.4907
36.46	19.3418
36.68	21.4374
36.9	21.0401
37.12	48.5783
37.34	53.9764
37.56	16.2254
37.78	14.4632
38	12.3939
38.22	21.1541
38.44	13.6179
38.66	22.6209
38.88	54.4543
39.1	30.848
39.32	16.795
39.54	16.5197
39.76	34.7299
39.98	3.91181
40.2	15.0627
40.42	10.5748
40.64	44.3307
40.86	34.6724
41.08	21.0802
41.3	16.4316
41.52	19.5262
41.74	0.96862
41.96	13.5158
42.18	16.3055
42.4	17.3778
42.62	41.7609
42.84	7.78421
43.06	73.8731
43.28	5.65157
43.5	14.5487
43.72	15.0853
43.94	12.2058
44.16	8.32191
44.38	6.2554
44.6	17.8684
44.82	4.05855
45.04	1.01378
45.26	4.34522
45.48	26.0635
45.7	7.18235
45.92	10.4468
46.14	4.84605
46.36	7.82405
46.58	22.4347
46.8	4.36341
47.02	15.1598
47.24	71.1446
47.46	15.4819
47.68	29.0796
47.9	5.4946
48.12	14.1283
48.34	15.2457
48.56	10.1142
48.78	20.7689
49	9.28482
49.22	0.367062
49.44	13.8429
49.66	13.037
49.88	10.8706
50.1	2.484
50.32	10.0254
50.54	1.40102
50.76	4.52478
50.98	21.7863
51.2	9.27473
51.42	23.7066
51.64	5.99631
51.86	9.1109
52.08	7.32774
52.3	17.2741
52.52	0.461681
52.74	8.4573
52.96	24.8688
53.18	0.023781
53.4	8.05404
53.62	5.90745
53.84	5.94003
54.06	10.0523
54.28	21.2503
54.5	19.6205
54.72	9.36275
54.94	11.9076
55.16	9.97614
55.38	8.64501
55.6	10.4736
55.82	25.7042
56.04	3.06978
56.26	6.65819
56.48	4.44051
56.7	22.8517
56.92	24.9549
57.14	12.2878
57.36	1.51871
57.58	10.6123
57.8	10.8389
58.02	0.851507
58.24	12.6568
58.46	3.6404
58.68	4.39987
58.9	10.2858
59.12	15.3642
59.34	4.69572
59.56	9.49104
59.78	15.044
60	13.8959
60.22	2.1972
60.44	6.71501
60.66	2.65082
60.88	10.7644
61.1	4.82411
61.32	3.0225
61.54	7.14223
61.76	14.8297
61.98	5.94349
62.2	19.6775
62.42	20.4694
62.64	5.51279
62.86	11.3502
63.08	5.00575
63.3	6.28959
63.52	18.0991
63.74	13.2631
63.96	9.4709
64.18	6.55565
64.4	6.02258
64.62	3.54255
64.84	8.63687
65.06	8.20208
65.28	5.62604
65.5	14.3072
65.72	9.73858
65.94	1.28249
66.16	4.3235
66.38	6.88574
66.6	0.228741
66.82	14.4261
67.04	10.2447
67.26	7.16062
67.48	6.25989
67.7	6.63741
67.92	13.1692
68.14	10.4441
68.36	5.55978
68.58	3.84377
68.8	18.8179
69.02	2.23258
69.24	8.50137
69.46	6.61855
69.68	5.40865
69.9	5.79125
70.12	7.78948
70.34	5.25339
70.56	19.2669
70.78	19.4258
71	13.3138
71.22	1.95936
71.44	13.8591
71.66	5.85139
71.88	5.85817
72.1	4.37098
72.32	8.40303
72.54	4.72313
72.76	1.49272
72.98	5.23387
73.2	0.359524
73.42	2.32768
73.64	7.39841
73.86	3.18523
74.08	4.63017
74.3	8.56328
74.52	7.66634
74.74	16.5426
74.96	11.5046
75.18	12.5862
75.4	8.76273
75.62	5.73252
75.84	8.84338
76.06	2.87637
76.28	15.2139
76.5	9.88585
76.72	6.61536
76.94	0.686096
77.16	2.95893
77.38	9.88012
77.6	10.4404
77.82	3.33795
78.04	7.46741
78.26	0.600216
78.48	9.04003
78.7	9.06274
78.92	2.66115
79.14	5.41772
79.36	10.9739
79.58	20.8871
79.8	3.89886
80.02	1.12225
80.24	12.5797
80.46	6.64455
80.68	24.0905
80.9	10.2581
81.12	12.3094
81.34	4.36231
81.56	7.35738
81.78	4.25246
82	14.7383
82.22	11.7813
82.44	13.0475
82.66	4.96934
82.88	11.3903
83.1	6.15299
83.32	0.373816
83.54	5.99973
83.76	9.33347
83.98	2.51107
84.2	4.51546
84.42	9.60731
84.64	5.92462
84.86	17.114
85.08	23.914
85.3	5.35428
85.52	7.26761
85.74	14.3703
85.96	7.17835
86.18	5.89144
86.4	0.786173
86.62	4.47671
86.84	11.6435
87.06	4.56784
87.28	5.47944
87.5	5.44402
87.72	1.67419
87.94	8.84473
88.16	9.62249
88.38	3.63718
88.6	14.0934
88.82	10.3842
89.04	2.59325
89.26	9.81163
89.48	1.33021
89.7	7.66148
89.92	4.99072
