Measurement: Powder, Xray Data XY Processed
Mineral: Meneghinite
Rruff sample: R050444
Ideal chemistry: Pb^2+^_13_Cu^1+^Sb^3+^_7_S^2-^_24_
Locality: Bottino, Tucsany, Italy
Source: Peter Megaw
Description: Lead-gray metallic slender prismatic and striated crystal
Diffraction sample description: Single crystal, powder profile is calculated
Measured chemistry: (Pb_12.75_Sb_0.25_)_Σ=13.00_(Cu_0.73_Sb_0.13_Fe_0.01_)_Σ=0.87_Sb_7.00_S_24.00_
Cell parameters: a: 11.357(1) b: 24.058(2) c: 4.1274(4) alpha: 90 beta: 90 gamma: 90 volume: 1127.7(4) crystal system: orthorhombic
x	intensity
5	0
5.22	0
5.44	0
5.66	0
5.88	0
6.1	0
6.32	0
6.54	0
6.76	0
6.98	0
7.2	0
7.42	0.028
7.64	0
7.86	0
8.08	0
8.3	0
8.52	0
8.74	0
8.96	0
9.18	0
9.4	0
9.62	0
9.84	0
10.06	0
10.28	0
10.5	0
10.72	3.636
10.94	0
11.16	0
11.38	0
11.6	0
11.82	0
12.04	0
12.26	0
12.48	0
12.7	0
12.92	0
13.14	0
13.36	0
13.58	1.072
13.8	0
14.02	0
14.24	0
14.46	0
14.68	0.577
14.9	0
15.12	0
15.34	0
15.56	1.132
15.78	0
16	0.013
16.22	0
16.44	0
16.66	2.574
16.88	0
17.1	0
17.32	1.405
17.54	0
17.76	0
17.98	0
18.2	0
18.42	0
18.64	0
18.86	0
19.08	0.014
19.3	0
19.52	0
19.74	0
19.96	0.428
20.18	0.003
20.4	0
20.62	0
20.84	0
21.06	0
21.28	0
21.5	24.922
21.72	0
21.94	0
22.16	0.231
22.38	0
22.6	0
22.82	2.48
23.04	0.139
23.26	0.662
23.48	5.864
23.7	3.123
23.92	0.464
24.14	17.409
24.36	0.365
24.58	2.298
24.8	0.01
25.02	0
25.24	0
25.46	55.936
25.68	0.003
25.9	0.011
26.12	3.079
26.34	0.003
26.56	0
26.78	0
27	2.96
27.22	33.036
27.44	11.711
27.66	0.04
27.88	0.077
28.1	0
28.32	0
28.54	0
28.76	0
28.98	32.046
29.2	0
29.42	0
29.64	0.709
29.86	0.003
30.08	0.728
30.3	1.815
30.52	4.504
30.74	14.251
30.96	0.002
31.18	0.45
31.4	0.027
31.62	0.161
31.84	0.428
32.06	15.75
32.28	37.841
32.5	1.357
32.72	19.915
32.94	9.726
33.16	0
33.38	0
33.6	0.183
33.82	5.991
34.04	1.675
34.26	0
34.48	0.309
34.7	0
34.92	3.946
35.14	0.001
35.36	0.139
35.58	0.366
35.8	0
36.02	0
36.24	0
36.46	0
36.68	0.285
36.9	0.698
37.12	0.118
37.34	2.525
37.56	3.323
37.78	5.18
38	0.251
38.22	0.291
38.44	0
38.66	0.187
38.88	1.027
39.1	0.115
39.32	10.377
39.54	0
39.76	0
39.98	0.002
40.2	13.966
40.42	2.235
40.64	0.622
40.86	0.343
41.08	2.496
41.3	4.921
41.52	4.261
41.74	0.541
41.96	0.047
42.18	0.241
42.4	0.021
42.62	3.09
42.84	0
43.06	0.106
43.28	0.004
43.5	34.618
43.72	0.342
43.94	23.536
44.16	2.291
44.38	1.669
44.6	0.516
44.82	5.564
45.04	0.027
45.26	1.086
45.48	0.017
45.7	4.705
45.92	13.128
46.14	0.112
46.36	0.013
46.58	1.456
46.8	0.561
47.02	11.462
47.24	0.52
47.46	0.372
47.68	1.624
47.9	0.844
48.12	17.414
48.34	2.013
48.56	0.098
48.78	0.444
49	0
49.22	0.258
49.44	8.917
49.66	0.247
49.88	3.45
50.1	0.649
50.32	2.189
50.54	10.265
50.76	3.292
50.98	0.917
51.2	8.876
51.42	0.733
51.64	2.585
51.86	1.233
52.08	0.884
52.3	17.676
52.52	3.764
52.74	0.043
52.96	0.22
53.18	19.994
53.4	2.656
53.62	0.064
53.84	1.945
54.06	2.437
54.28	10.076
54.5	3.451
54.72	0.129
54.94	0.798
55.16	0.561
55.38	0.17
55.6	0.734
55.82	1.283
56.04	0.653
56.26	0.109
56.48	2.018
56.7	0.059
56.92	0.339
57.14	0.072
57.36	1.26
57.58	0.229
57.8	0.574
58.02	0.685
58.24	0.12
58.46	0.285
58.68	1.26
58.9	1.898
59.12	0.314
59.34	0
59.56	2.332
59.78	1.094
60	1.693
60.22	0.217
60.44	0.099
60.66	0.484
60.88	0.006
61.1	0.452
61.32	1.271
61.54	0.855
61.76	1.974
61.98	1.287
62.2	0.014
62.42	0.101
62.64	3.926
62.86	2.323
63.08	0.423
63.3	0.844
63.52	0.545
63.74	2.563
63.96	0.839
64.18	0.155
64.4	5.558
64.62	2.47
64.84	1.506
65.06	0.134
65.28	7.106
65.5	7.147
65.72	0.184
65.94	0.98
66.16	0.245
66.38	0.051
66.6	0.085
66.82	6.652
67.04	11.022
67.26	3.094
67.48	0.344
67.7	0.25
67.92	0.17
68.14	0.541
68.36	0.647
68.58	2.139
68.8	0.622
69.02	0.304
69.24	0.374
69.46	0.131
69.68	0.815
69.9	3.73
70.12	2.416
70.34	0.173
70.56	0.178
70.78	2.891
71	2.843
71.22	2.139
71.44	2.574
71.66	1.991
71.88	2.93
72.1	1.406
72.32	5.192
72.54	3.706
72.76	0.448
72.98	0.072
73.2	1.878
73.42	3.59
73.64	2.499
73.86	0.484
74.08	1.357
74.3	0.686
74.52	1.073
74.74	1.967
74.96	1.308
75.18	0.299
75.4	2.994
75.62	1.51
75.84	0.566
76.06	0.445
76.28	0.278
76.5	0.646
76.72	4.107
76.94	1.823
77.16	0.92
77.38	1.698
77.6	0.523
77.82	0.148
78.04	3.66
78.26	2.685
78.48	0.304
78.7	0.047
78.92	0.67
79.14	1.333
79.36	1.548
79.58	0.664
79.8	3.998
80.02	2.677
80.24	1.383
80.46	0.767
80.68	0.312
80.9	0.239
81.12	0.281
81.34	0.106
81.56	0.633
81.78	0.663
82	0.344
82.22	0.26
82.44	0.559
82.66	0.238
82.88	2.175
83.1	1.431
83.32	0.331
83.54	1.914
83.76	1.406
83.98	0.432
84.2	0.112
84.42	0.263
84.64	0.831
84.86	2.762
85.08	0.629
85.3	2.556
85.52	3.17
85.74	1.184
85.96	0.634
86.18	0.274
86.4	0.048
86.62	0.349
86.84	0.276
87.06	0.016
87.28	1.003
87.5	2.791
87.72	0.886
87.94	0.87
88.16	1.126
88.38	0.646
88.6	0.079
88.82	1.965
89.04	0.267
89.26	1.902
89.48	0.631
89.7	0.061
89.92	0.157
