Measurement: Powder, Xray Data XY Processed
Mineral: Merwinite
Rruff sample: R070195
Ideal chemistry: Ca_3_Mg(SiO_4_)_2_
Locality: Commercial Quarry, Riverside County, California, USA
Source: California Institute of Technology
Description: Light gray massive
Diffraction sample description: Powder
Measured chemistry: Ca_3.00_(Mg_0.98_Fe^2+^_0.02_)_Î£=1_(Si_1.00_O_4_)_2_
Cell parameters: a: 13.2913(3) b: 5.3067(3) c: 9.3446(3) alpha: 90 beta: 92.134(2) gamma: 90 volume: 658.65(3) crystal system: monoclinic
x	intensity
5	0
5.22	1.57028
5.44	11.3893
5.66	2.54312
5.88	10.1173
6.1	0.015126
6.32	6.02961
6.54	8.26613
6.76	11.2666
6.98	15.2409
7.2	14.1225
7.42	5.6576
7.64	13.6809
7.86	9.94869
8.08	19.2832
8.3	4.59547
8.52	1.75358
8.74	5.01393
8.96	2.1639
9.18	10.7688
9.4	3.69289
9.62	9.23969
9.84	7.10188
10.06	5.7217
10.28	0.955893
10.5	9.18092
10.72	1.57381
10.94	8.90481
11.16	1.87007
11.38	9.52069
11.6	6.33079
11.82	6.62714
12.04	4.77732
12.26	9.90438
12.48	6.66768
12.7	8.88954
12.92	4.96891
13.14	12.0706
13.36	49.1876
13.58	5.88913
13.8	4.8196
14.02	11.0856
14.24	0.307244
14.46	2.62364
14.68	6.801
14.9	7.02272
15.12	0.940418
15.34	6.37974
15.56	1.47283
15.78	12.3434
16	9.22346
16.22	2.33452
16.44	9.49973
16.66	9.41204
16.88	3.33546
17.1	2.48783
17.32	2.42419
17.54	7.36176
17.76	16.3048
17.98	4.28575
18.2	8.34427
18.42	7.27902
18.64	14.245
18.86	5.1303
19.08	4.98569
19.3	19.9357
19.52	2.87195
19.74	6.84877
19.96	9.03654
20.18	9.80741
20.4	2.73849
20.62	5.70872
20.84	4.55059
21.06	7.67856
21.28	7.67282
21.5	3.63307
21.72	6.644
21.94	6.4651
22.16	4.61302
22.38	5.37171
22.6	1.30791
22.82	9.37291
23.04	13.3387
23.26	8.47171
23.48	7.33371
23.7	10.2119
23.92	0.67252
24.14	0.289695
24.36	6.26427
24.58	6.01449
24.8	2.4462
25.02	3.41463
25.24	9.55191
25.46	11.3359
25.68	6.97456
25.9	5.98041
26.12	3.91906
26.34	3.8056
26.56	8.32552
26.78	14.2297
27	6.06649
27.22	5.62165
27.44	0.354559
27.66	7.39655
27.88	3.25417
28.1	2.11209
28.32	5.10773
28.54	9.13189
28.76	1.46082
28.98	4.8674
29.2	5.85102
29.42	7.78653
29.64	7.93952
29.86	6.90829
30.08	11.3224
30.3	20.0565
30.52	22.7232
30.74	7.16896
30.96	5.34295
31.18	3.32492
31.4	7.52771
31.62	8.77616
31.84	15.0447
32.06	0.988084
32.28	2.11381
32.5	254.976
32.72	4.63518
32.94	46.6642
33.16	6.26129
33.38	547.928
33.6	149.308
33.82	170.17
34.04	16.8974
34.26	1.30696
34.48	1.88278
34.7	6.79708
34.92	11.7285
35.14	2.66319
35.36	9.0947
35.58	5.11257
35.8	9.4682
36.02	9.81217
36.24	5.06914
36.46	10.104
36.68	10.9761
36.9	7.63439
37.12	0.520038
37.34	4.54789
37.56	5.00937
37.78	4.63958
38	5.96645
38.22	6.86908
38.44	3.41806
38.66	19.7296
38.88	27.4101
39.1	23.2124
39.32	10.9408
39.54	28.5317
39.76	15.9894
39.98	4.12685
40.2	3.36157
40.42	12.4764
40.64	10.2391
40.86	76.7415
41.08	7.59991
41.3	11.1945
41.52	42.3239
41.74	9.8196
41.96	1.58813
42.18	0.421484
42.4	5.60878
42.62	4.85411
42.84	5.01048
43.06	0.136403
43.28	6.74088
43.5	6.31212
43.72	15.0694
43.94	44.9696
44.16	11.1122
44.38	10.6847
44.6	34.3104
44.82	8.46862
45.04	12.9377
45.26	4.07993
45.48	3.39095
45.7	7.47752
45.92	8.909
46.14	2.97867
46.36	3.02154
46.58	5.697
46.8	8.46927
47.02	3.37984
47.24	2.21899
47.46	17.663
47.68	57.5323
47.9	4.36722
48.12	3.42979
48.34	5.46898
48.56	42.6453
48.78	5.74185
49	6.87745
49.22	8.01476
49.44	2.9414
49.66	2.17304
49.88	3.59261
50.1	21.7096
50.32	9.66063
50.54	3.53949
50.76	2.12666
50.98	0.185034
51.2	1.78931
51.42	0.698486
51.64	0.37597
51.86	4.62298
52.08	7.41151
52.3	0.361641
52.52	5.69743
52.74	18.7629
52.96	3.88518
53.18	7.18163
53.4	4.38377
53.62	4.58325
53.84	4.80579
54.06	6.36677
54.28	2.51324
54.5	10.5707
54.72	9.77032
54.94	2.8843
55.16	3.13314
55.38	5.15787
55.6	9.98415
55.82	5.9781
56.04	8.86458
56.26	6.66162
56.48	12.3101
56.7	7.26554
56.92	11.4497
57.14	44.9761
57.36	13.4266
57.58	4.80255
57.8	11.4597
58.02	0.410599
58.24	4.98828
58.46	25.7835
58.68	26.2907
58.9	21.0407
59.12	6.66606
59.34	18.0239
59.56	12.9187
59.78	27.3552
60	11.7273
60.22	20.2491
60.44	44.3182
60.66	4.65882
60.88	0.968679
61.1	7.62919
61.32	8.09353
61.54	3.6477
61.76	0.110237
61.98	6.5494
62.2	4.5121
62.42	0.799469
62.64	1.00199
62.86	6.18804
63.08	7.33607
63.3	1.40378
63.52	3.33793
63.74	0.362109
63.96	7.25447
64.18	12.206
64.4	13.3628
64.62	8.74884
64.84	7.50477
65.06	33.6132
65.28	13.4217
65.5	4.38764
65.72	8.2223
65.94	5.17431
66.16	5.04212
66.38	7.96463
66.6	15.9334
66.82	15.6314
67.04	1.91136
67.26	17.2234
67.48	6.70174
67.7	2.76262
67.92	4.92947
68.14	4.98583
68.36	4.1903
68.58	5.29418
68.8	0.46462
69.02	3.27881
69.24	1.07582
69.46	10.8469
69.68	4.3515
69.9	3.5063
70.12	12.0908
70.34	0.88038
70.56	3.72024
70.78	13.8354
71	12.7298
71.22	17.563
71.44	9.16425
71.66	6.51451
71.88	2.1814
72.1	9.2686
72.32	5.53412
72.54	4.01038
72.76	6.53935
72.98	14.0434
73.2	0.180241
73.42	5.97274
73.64	12.1956
73.86	5.94205
74.08	13.0317
74.3	4.12093
74.52	13.1174
74.74	14.1274
74.96	4.09846
75.18	1.02106
75.4	3.77014
75.62	6.95195
75.84	6.01606
76.06	6.33101
76.28	1.33199
76.5	3.21633
76.72	6.2433
76.94	7.15306
77.16	2.17475
77.38	9.0469
77.6	16.0539
77.82	12.2297
78.04	6.29093
78.26	11.256
78.48	5.72523
78.7	0.681335
78.92	2.54304
79.14	4.30435
79.36	3.18907
79.58	2.0347
79.8	6.85059
80.02	2.59369
80.24	17.3834
80.46	5.44138
80.68	20.5466
80.9	13.6903
81.12	5.88065
81.34	3.14782
81.56	4.37375
81.78	0.483049
82	10.7063
82.22	2.0399
82.44	3.14724
82.66	2.12603
82.88	5.32382
83.1	2.61115
83.32	10.6244
83.54	4.78694
83.76	1.64839
83.98	0.703072
84.2	6.76128
84.42	9.81162
84.64	6.73389
84.86	13.6857
85.08	5.77938
85.3	0.455001
85.52	1.79442
85.74	4.32791
85.96	9.14072
86.18	4.14025
86.4	7.99875
86.62	9.84453
86.84	2.35943
87.06	5.43431
87.28	1.60017
87.5	8.08801
87.72	11.255
87.94	2.29851
88.16	10.191
88.38	7.40837
88.6	4.56661
88.82	12.8759
89.04	5.23827
89.26	3.726
89.48	1.08558
89.7	6.6737
89.92	1.57934
