Measurement: Powder, Xray Data XY Processed
Mineral: Mesolite
Rruff sample: R040140
Ideal chemistry: Na_2_Ca_2_(Si_9_Al_6_)O_30_8H_2_O
Locality: Challis, Idaho, USA
Source: University of Arizona Mineral Museum
Description: White fibrous mass, associated with barrierite
Diffraction sample description: Powder, appears to be a mix of mesolite and barrierite
Measured chemistry: Na_1.88_Ca_1.96_(Si_9.19_Al_5.82_)O_30_Â·8H_2_O
Cell parameters: a: 18.413(1) b: 56.631(4) c: 6.551(2) alpha: 90. beta: 90. gamma: 90. volume: 6831(2) crystal system: orthorhombic
x	intensity
5	0
5.22	5.422
5.44	6.314
5.66	11.472
5.88	4.223
6.1	11.111
6.32	12.212
6.54	21.521
6.76	12.483
6.98	7.118
7.2	1.757
7.42	9.409
7.64	8.266
7.86	11.145
8.08	1.913
8.3	5.583
8.52	6.025
8.74	4.223
8.96	2.38
9.18	4.485
9.4	3.312
9.62	84.422
9.84	24.683
10.06	7.566
10.28	16.257
10.5	1.998
10.72	5.076
10.94	5.301
11.16	0.465
11.38	5.182
11.6	4.28
11.82	7.259
12.04	15.053
12.26	20.557
12.48	2.649
12.7	0.828
12.92	8.835
13.14	4.968
13.36	77.65
13.58	32.181
13.8	2.042
14.02	5.903
14.24	12.14
14.46	35.704
14.68	2.858
14.9	6.232
15.12	295.565
15.34	10.905
15.56	13.936
15.78	1.34
16	8.641
16.22	7.245
16.44	19.626
16.66	17.454
16.88	9.998
17.1	13.804
17.32	0.299
17.55	12.97
17.77	0.519
17.99	8.787
18.21	4.879
18.43	5.78
18.65	10.445
18.87	615.401
19.09	65.671
19.31	187.993
19.53	9.756
19.75	14.103
19.97	23.057
20.19	199.442
20.41	177.002
20.63	0.967
20.85	18.997
21.07	4.823
21.29	39.899
21.51	84.148
21.73	4.875
21.95	198.128
22.17	13.503
22.39	4.048
22.61	3.207
22.83	7.202
23.05	17.882
23.27	2.83
23.49	7.229
23.71	17.974
23.93	9.161
24.15	8.707
24.37	11.094
24.59	5.569
24.81	6.391
25.03	18.148
25.25	1.053
25.47	7.596
25.69	20.089
25.91	9.549
26.13	2.53
26.35	32.479
26.57	10.493
26.79	3.854
27.01	13.284
27.23	5.466
27.45	5.321
27.67	29.862
27.89	36.007
28.11	55.663
28.33	32.824
28.55	5.17
28.77	3.238
28.99	14.408
29.21	2.144
29.43	85.191
29.65	21.383
29.87	25.289
30.09	26.624
30.31	9.08
30.53	91.971
30.75	13.326
30.97	363.628
31.19	101.437
31.41	74.061
31.63	4.553
31.85	4.032
32.07	12.519
32.29	34.291
32.51	8.623
32.73	7.3
32.95	8.918
33.17	2.235
33.39	5.474
33.61	8.836
33.83	5.102
34.05	5.384
34.27	9.367
34.49	7.132
34.71	27.633
34.93	25.758
35.15	20.952
35.37	2.097
35.59	5.109
35.81	10.159
36.03	5.325
36.25	15.502
36.47	44.476
36.69	10.712
36.91	14.256
37.13	73.479
37.35	4.586
37.57	1.697
37.79	6.528
38.01	0.655
38.23	20.566
38.45	8.376
38.67	3.982
38.89	27.529
39.11	17.365
39.33	8.618
39.55	8.289
39.77	9.826
39.99	0.873
40.21	1.829
40.43	15.639
40.65	5.682
40.87	9.867
41.09	94.536
41.31	6.311
41.53	12.541
41.75	5.048
41.97	3.112
42.19	2.23
42.41	9.6
42.63	19.763
42.85	5.735
43.07	2.713
43.29	6.464
43.51	1.994
43.73	9.109
43.95	10.744
44.17	13.756
44.39	12.098
44.61	10.444
44.83	9.776
45.05	5.104
45.27	10.503
45.49	19.688
45.71	13.872
45.93	1.881
46.15	4.559
46.37	13.278
46.59	11.213
46.81	16.802
47.03	5.951
47.25	1.603
47.47	0.665
47.69	0.052
47.91	10.581
48.13	4.23
48.35	2.73
48.57	15.552
48.79	12.117
49.01	6.677
49.23	12.434
49.45	10.943
49.67	1.443
49.89	8.873
50.11	14.183
50.33	13.215
50.55	40.469
50.77	15.737
50.99	4.487
51.21	11.688
51.43	7.935
51.65	7.181
51.87	7.644
52.09	1.391
52.31	22.034
52.53	8.18
52.75	11.599
52.97	12.487
53.19	2.684
53.41	29.777
53.63	1.284
53.85	9.387
54.07	1.57
54.29	10.383
54.51	14.794
54.73	6.804
54.95	1.604
55.17	3.035
55.39	0.885
55.61	9.841
55.83	5.567
56.05	14.849
56.27	23.481
56.49	8.057
56.71	2.036
56.93	16.947
57.15	10.746
57.37	16.768
57.59	5.279
57.81	0.162
58.03	20.068
58.25	18.765
58.48	6.259
58.7	0.257
58.92	2.658
59.14	4.039
59.36	3.536
59.58	20.884
59.8	6.206
60.02	20.161
60.24	2.133
60.46	6.457
60.68	11.394
60.9	18.658
61.12	14.166
61.34	5.043
61.56	0.98
61.78	2.937
62	6.8
62.22	5.64
62.44	9.523
62.66	11.202
62.88	0.999
63.1	25.777
63.32	29.809
63.54	8.971
63.76	16.177
63.98	2.28
64.2	4.352
64.42	3.638
64.64	11.189
64.86	2.682
65.08	4.753
65.3	8.947
65.52	3.96
65.74	2.286
65.96	3.793
66.18	3.602
66.4	0.478
66.62	6.472
66.84	4.342
67.06	1.915
67.28	3.637
67.5	12.954
67.72	12.519
67.94	3.566
68.16	14.642
68.38	3.513
68.6	3.605
68.82	2.327
69.04	3.062
69.26	5.021
69.48	8.883
69.7	3.796
69.92	9.312
70.14	5.424
70.36	7.065
70.58	7.714
70.8	14.357
71.02	6.061
71.24	15.785
71.46	9.167
71.68	6.085
71.9	8.992
72.12	13.726
72.34	8.781
72.56	12.092
72.78	4.629
73	7.356
73.22	4.855
73.44	7.434
73.66	2.954
73.88	3.371
74.1	12.922
74.32	1.321
74.54	1.992
74.76	4.047
74.98	4.408
75.2	0.862
75.42	4.013
75.64	1.947
75.86	6.75
76.08	0.541
76.3	0.31
76.52	4.821
76.74	9.755
76.96	3.592
77.18	6.673
77.4	6.469
77.62	15.371
77.84	0.624
78.06	3.518
78.28	7.49
78.5	4.552
78.72	9.988
78.94	6.186
79.16	11.319
79.38	2.472
79.6	8.517
79.82	10.485
80.04	3.568
80.26	2.602
80.48	3.473
80.7	0.458
80.92	1.72
81.14	18.429
81.36	5.452
81.58	4.958
81.8	3.133
82.02	0.883
82.24	7.146
82.46	6.284
82.68	2.546
82.9	5.696
83.12	5.786
83.34	1.952
83.56	9.233
83.78	6.337
84	0.047
84.22	4.018
84.44	2.116
84.66	0.179
84.88	0.755
85.1	2.455
85.32	0.375
85.54	8.665
85.76	5.756
85.98	5.658
86.2	2.75
86.42	4.959
86.64	4.069
86.86	4.059
87.08	8.083
87.3	5.09
87.52	12.941
87.74	1.883
87.96	4.939
88.18	3.954
88.4	7.111
88.62	1.381
88.84	6.153
89.06	7.276
89.28	6.58
89.5	1.785
89.72	9.335
89.94	6.188
