Measurement: Powder, Xray Data XY Processed
Mineral: Metatorbernite
Rruff sample: R040171
Ideal chemistry: Cu^2+^(U^6+^O_2_)_2_(PO_4_)_2_8H_2_O
Locality: La Luz de Cobre, Sonora, Mexico
Source: University of Arizona Mineral Museum
Description: Green thin tabular crystals
Diffraction sample description: Powder
Measured chemistry: (Cu_0.80_[box]_0.20_)_Σ=1_(U_1.00_O_2_)_2_(P_1.00_O_4_)_2_·8((H_2_O)_0.95_(H_3_O)^+^_0.05_)
Cell parameters: a: 6.9605(2) b: 6.9605(2) c: 17.3101(5) alpha: 90. beta: 90. gamma: 90. volume: 838.66(5) crystal system: tetragonal
x	intensity
5	0
5.22	16.1411
5.44	18.2895
5.66	6.19869
5.88	2.0189
6.1	14.3438
6.32	4.02345
6.54	5.70454
6.76	11.4822
6.98	11.948
7.2	7.13762
7.42	4.82074
7.64	2.02363
7.86	8.33281
8.08	14.23
8.3	14.1811
8.52	10.99
8.74	17.9117
8.96	2.65447
9.18	13.2191
9.4	6.76899
9.62	7.70259
9.84	31.1171
10.06	87.0619
10.28	421.117
10.5	38.4542
10.72	7.59882
10.94	7.38922
11.16	10.3371
11.38	6.58652
11.6	11.6814
11.82	2.93668
12.04	3.11387
12.26	20.9143
12.48	4.53924
12.7	1.89102
12.92	13.9912
13.14	13.8867
13.36	6.0471
13.58	12.8747
13.8	9.64554
14.02	3.23326
14.24	10.974
14.46	8.87251
14.68	3.63911
14.9	15.4832
15.12	3.24476
15.34	4.78939
15.56	14.1043
15.78	0.165995
16	7.86259
16.22	53.5472
16.44	75.545
16.66	14.7928
16.88	5.17277
17.1	2.0976
17.32	8.57214
17.54	21.0499
17.76	12.7842
17.98	183.494
18.2	39.3718
18.42	13.2752
18.64	12.8585
18.86	6.60182
19.08	17.5526
19.3	2.35313
19.52	6.75225
19.74	5.88839
19.96	5.16157
20.18	2.17014
20.4	23.6364
20.62	42.3543
20.84	71.687
21.06	10.4505
21.28	0.000803
21.5	1.11896
21.72	5.40008
21.94	14.81
22.16	11.007
22.38	3.76992
22.6	7.35821
22.82	6.546
23.04	2.29118
23.26	1.35661
23.48	17.4108
23.7	14.2444
23.92	33.6261
24.14	288.726
24.36	154.919
24.58	28.4697
24.8	6.49769
25.02	7.28881
25.24	9.77843
25.46	44.6331
25.68	142.677
25.9	13.9167
26.12	19.6432
26.34	1.10475
26.56	1.66451
26.78	8.54029
27	10.2766
27.22	18.9315
27.44	39.7268
27.66	174.124
27.88	17.6157
28.1	15.4324
28.32	12.5416
28.54	12.8385
28.76	6.05593
28.98	10.0392
29.2	23.0275
29.42	3.83396
29.64	9.67806
29.86	0.466391
30.08	11.7992
30.3	17.145
30.52	78.3037
30.74	27.4053
30.96	4.60069
31.18	3.2827
31.4	0.652948
31.62	3.53889
31.84	4.63769
32.06	5.75197
32.28	6.68007
32.5	2.61504
32.72	3.30682
32.94	10.4639
33.16	18.3971
33.38	22.8738
33.6	108.46
33.82	24.6776
34.04	7.81613
34.26	0.124592
34.48	1.13948
34.7	4.766
34.92	8.62838
35.14	7.50406
35.36	27.2904
35.58	58.8862
35.8	23.4154
36.02	26.3865
36.24	6.75136
36.46	43.8935
36.68	12.1031
36.9	6.41851
37.12	2.81197
37.34	1.68246
37.56	1.869
37.78	13.5562
38	46.1479
38.22	13.3065
38.44	5.19458
38.66	1.82997
38.88	6.70457
39.1	12.7559
39.32	3.64969
39.54	2.32251
39.76	11.509
39.98	1.4356
40.2	24.0689
40.42	6.99573
40.64	7.57704
40.86	18.1337
41.08	53.7022
41.3	7.02105
41.52	26.2932
41.74	84.5126
41.96	11.9995
42.18	13.6003
42.4	28.5304
42.62	38.7345
42.84	29.1939
43.06	1.92167
43.28	5.69653
43.5	4.25098
43.72	27.7977
43.94	31.96
44.16	42.5423
44.38	48.0045
44.6	7.78636
44.82	4.71957
45.04	0.777304
45.26	4.63118
45.48	10.5267
45.7	52.902
45.92	52.6667
46.14	15.0583
46.36	4.00047
46.58	5.61003
46.8	8.88589
47.02	8.11421
47.24	10.1482
47.46	13.0613
47.68	2.15229
47.9	7.40749
48.12	3.55567
48.34	24.0031
48.56	5.7327
48.78	11.694
49	8.65648
49.22	2.31653
49.44	11.0239
49.66	48.2823
49.88	0.346319
50.1	11.6268
50.32	1.08811
50.54	29.3741
50.76	8.02779
50.98	6.66204
51.2	8.7922
51.42	23.0021
51.64	19.7998
51.86	49.7138
52.08	16.6696
52.3	15.3475
52.52	40.1072
52.74	11.6973
52.96	19.641
53.18	3.58055
53.4	0.74511
53.62	11.6833
53.84	7.97013
54.06	4.734
54.28	9.20474
54.5	3.23501
54.72	2.423
54.94	11.2373
55.16	3.84464
55.38	8.0618
55.6	7.27762
55.82	10.3324
56.04	25.0164
56.26	35.9113
56.48	20.312
56.7	5.95487
56.92	7.91851
57.14	21.1287
57.36	17.9051
57.58	13.7467
57.8	2.6513
58.02	2.34522
58.24	3.88721
58.46	6.54971
58.68	23.3141
58.9	12.9491
59.12	4.4498
59.34	21.5537
59.56	24.907
59.78	42.5385
60	21.1967
60.22	20.3766
60.44	9.61849
60.66	8.91099
60.88	6.08057
61.1	8.18557
61.32	5.58663
61.54	3.17826
61.76	0.750223
61.98	12.0827
62.2	6.44822
62.42	3.67349
62.64	8.39407
62.86	18.8883
63.08	3.72511
63.3	9.5281
63.52	10.2561
63.74	10.9327
63.96	14.5693
64.18	7.29987
64.4	3.05521
64.62	13.8378
64.84	7.82068
65.06	2.34702
65.28	10.6821
65.5	1.80229
65.72	6.51365
65.94	19.8724
66.16	15.2958
66.38	7.09406
66.6	6.9615
66.82	6.74581
67.04	3.63778
67.26	9.44906
67.48	8.11484
67.7	9.7164
67.92	6.37738
68.14	7.44254
68.36	1.54274
68.58	5.0886
68.8	17.0528
69.02	22.8107
69.24	21.1383
69.46	8.28432
69.68	14.2843
69.9	1.52437
70.12	5.72913
70.34	5.96499
70.56	16.1392
70.78	5.37561
71	2.52982
71.22	14.3131
71.44	3.94315
71.66	3.93001
71.88	9.31245
72.1	14.7861
72.32	21.4052
72.54	4.85034
72.76	4.63599
72.98	6.25028
73.2	0.178609
73.42	2.86859
73.64	2.53516
73.86	6.70977
74.08	8.35315
74.3	3.29412
74.52	10.9638
74.74	6.51167
74.96	18.3218
75.18	9.66308
75.4	7.60571
75.62	5.9723
75.84	7.04817
76.06	10.6809
76.28	5.42736
76.5	8.26013
76.72	4.3735
76.94	5.29849
77.16	4.32433
77.38	9.16995
77.6	3.05095
77.82	11.3415
78.04	19.2879
78.26	10.0642
78.48	12.129
78.7	12.2135
78.92	12.4154
79.14	5.41156
79.36	7.42616
79.58	6.361
79.8	4.78593
80.02	1.80648
80.24	7.38363
80.46	6.41176
80.68	2.66197
80.9	2.29561
81.12	7.91586
81.34	8.90373
81.56	5.24947
81.78	5.98478
82	10.0333
82.22	3.69704
82.44	6.54633
82.66	4.49749
82.88	6.51439
83.1	14.3567
83.32	10.4467
83.54	17.4923
83.76	7.55456
83.98	11.5531
84.2	8.55195
84.42	11.9131
84.64	0.532877
84.86	4.91422
85.08	0.300322
85.3	4.71204
85.52	9.24233
85.74	1.74536
85.96	0.106302
86.18	6.86344
86.4	5.56866
86.62	12.1493
86.84	2.1399
87.06	0.762827
87.28	6.64138
87.5	1.55829
87.72	8.3292
87.94	5.91685
88.16	6.53146
88.38	9.4441
88.6	11.1682
88.82	11.2385
89.04	4.06
89.26	6.86019
89.48	12.6359
89.7	15.3244
89.92	0.19084
