Measurement: Powder, Xray Data XY Processed
Mineral: Meta-autunite
Rruff sample: R060476
Ideal chemistry: Ca(U^6+^O_2_)_2_(PO_4_)_2_6H_2_O
Locality: San Pedro mine, Malacheta, Minas Gerais, Brazil
Source: Michael Scott
Description: Book of yellowish-green thin tabular crystals
Diffraction sample description: Powder
Measured chemistry: (Ca_0.87_Sr_0.05_Ba_0.04_)_∑=0.96_(UO_2_)_1.95_(PO_4_)_2.08_·4.10H_2_O
Cell parameters: a: 6.9816(5) b: 6.9816(5) c: 8.4497(7) alpha: 90 beta: 90 gamma: 90 volume: 411.86(6) crystal system: tetragonal
x	intensity
5	0
5.22	7.82531
5.44	12.8393
5.66	6.66346
5.88	7.67945
6.1	8.54745
6.32	0.919781
6.54	8.99799
6.76	6.04224
6.98	3.1153
7.2	11.7651
7.42	7.22502
7.64	11.3412
7.86	1.31994
8.08	2.78922
8.3	7.82233
8.52	66.5216
8.74	32.4663
8.96	7.53348
9.18	7.68597
9.4	10.1953
9.62	11.9574
9.84	12.3987
10.06	22.1798
10.28	55.7621
10.5	557.038
10.72	19.4097
10.94	1.07024
11.16	8.64224
11.38	11.1637
11.6	1.36878
11.82	2.91436
12.04	3.1555
12.26	2.69584
12.48	4.00385
12.7	5.91472
12.92	3.02196
13.14	3.01691
13.36	10.1863
13.58	2.99381
13.8	2.07336
14.02	7.89719
14.24	8.11976
14.46	3.88311
14.68	5.10063
14.9	5.07783
15.12	8.40324
15.34	7.90034
15.56	2.16364
15.78	2.599
16	6.82529
16.22	5.16947
16.44	61.7399
16.66	22.8692
16.88	10.4863
17.1	11.6369
17.32	13.7202
17.54	3.68932
17.76	5.01032
17.98	52.2502
18.2	20.0661
18.42	0.606255
18.64	1.81465
18.86	8.86734
19.08	9.04545
19.3	0.775783
19.52	9.33852
19.74	4.10109
19.96	16.1445
20.18	6.02373
20.4	16.1926
20.62	14.1699
20.84	35.6029
21.06	62.7214
21.28	10.1353
21.5	9.7035
21.72	0.022301
21.94	0.655625
22.16	4.71761
22.38	6.77272
22.6	6.42751
22.82	5.08621
23.04	5.57094
23.26	1.9386
23.48	5.41318
23.7	0.305283
23.92	0.175933
24.14	4.22926
24.36	11.575
24.58	168.898
24.8	51.8425
25.02	27.9032
25.24	10.0963
25.46	43.4361
25.68	8.52762
25.9	10.7174
26.12	6.10788
26.34	8.46857
26.56	4.83294
26.78	10.1691
27	7.70505
27.22	5.83944
27.44	14.2988
27.66	57.4792
27.88	7.5407
28.1	1.08008
28.32	7.25786
28.54	2.77604
28.76	1.02035
28.98	9.40544
29.2	2.5882
29.42	3.56108
29.64	3.61209
29.86	2.5412
30.08	3.55406
30.3	10.5058
30.52	25.5299
30.74	1.58014
30.96	14.6141
31.18	5.95418
31.4	9.37463
31.62	6.57255
31.84	3.64837
32.06	5.70513
32.28	1.57083
32.5	3.49449
32.72	0.551928
32.94	4.39713
33.16	7.23808
33.38	9.73332
33.6	5.03857
33.82	8.65987
34.04	9.98994
34.26	63.9704
34.48	16.8109
34.7	9.69778
34.92	2.56256
35.14	0.550336
35.36	0.481552
35.58	10.4208
35.8	21.3917
36.02	6.61408
36.24	12.2817
36.46	11.1821
36.68	18.27
36.9	6.44747
37.12	1.79966
37.34	0.958815
37.56	5.41087
37.78	5.80084
38	12.2569
38.22	0.329164
38.44	9.84219
38.66	2.12884
38.88	4.19002
39.1	6.09345
39.32	7.136
39.54	5.84215
39.76	8.575
39.98	0.079333
40.2	11.6216
40.42	4.24803
40.64	4.70015
40.86	26.3892
41.08	9.70758
41.3	2.21785
41.52	4.81384
41.74	3.31071
41.96	5.96708
42.18	7.67131
42.4	18.4403
42.62	13.6243
42.84	46.5401
43.06	19.7026
43.28	30.4776
43.5	8.71693
43.72	0.005904
43.94	0.332762
44.16	4.75765
44.38	30.5507
44.6	12.0839
44.82	28.3095
45.04	5.43005
45.26	5.5975
45.48	2.72885
45.7	6.922
45.92	5.06435
46.14	0.661717
46.36	2.5713
46.58	9.86682
46.8	32.4971
47.02	8.51964
47.24	2.49772
47.46	4.60221
47.68	4.68309
47.9	5.04026
48.12	4.19283
48.34	0.278157
48.56	5.50956
48.78	3.41554
49	1.52749
49.22	10.4158
49.44	1.3269
49.66	1.19729
49.88	3.98414
50.1	5.89894
50.32	7.59698
50.54	18.2803
50.76	4.03134
50.98	7.50905
51.2	4.0173
51.42	1.70845
51.64	4.57449
51.86	14.8375
52.08	12.2258
52.3	13.2587
52.52	11.0313
52.74	7.28359
52.96	0.486441
53.18	4.68133
53.4	4.79921
53.62	0.190514
53.84	2.32162
54.06	3.8521
54.28	7.72424
54.5	4.42722
54.72	0.61049
54.94	3.62964
55.16	7.38992
55.38	4.52951
55.6	6.637
55.82	3.89774
56.04	6.52473
56.26	2.33865
56.48	1.76731
56.7	2.60644
56.92	10.4817
57.14	8.77549
57.36	8.92744
57.58	54.8055
57.8	29.4686
58.02	9.49234
58.24	2.14577
58.46	4.14383
58.68	3.47346
58.9	11.6952
59.12	10.7128
59.34	11.7352
59.56	7.11356
59.78	6.22389
60	4.33154
60.22	2.48674
60.44	8.8737
60.66	24.3828
60.88	15.5597
61.1	15.6756
61.32	2.97294
61.54	0.436355
61.76	1.07654
61.98	0.180702
62.2	3.43153
62.42	7.95048
62.64	0.882041
62.86	1.94168
63.08	7.85222
63.3	6.09603
63.52	4.06465
63.74	5.90804
63.96	4.96995
64.18	2.77495
64.4	0.213614
64.62	1.70139
64.84	6.83284
65.06	1.8781
65.28	0.755008
65.5	1.67199
65.72	5.38895
65.94	1.35811
66.16	3.04798
66.38	4.72648
66.6	0.363745
66.82	7.33785
67.04	6.0045
67.26	11.4409
67.48	8.06445
67.7	2.85254
67.92	7.98172
68.14	8.94276
68.36	3.68817
68.58	3.63481
68.8	1.57837
69.02	6.41179
69.24	0.407279
69.46	9.57246
69.68	6.85552
69.9	9.96259
70.12	13.0266
70.34	6.79967
70.56	0.928398
70.78	0.332676
71	9.77898
71.22	3.95509
71.44	4.20886
71.66	8.42603
71.88	4.63496
72.1	1.43135
72.32	0.761529
72.54	10.8945
72.76	5.96978
72.98	0.118137
73.2	5.31456
73.42	8.17116
73.64	5.50642
73.86	8.65247
74.08	9.89031
74.3	5.76928
74.52	5.70876
74.74	5.80911
74.96	2.74536
75.18	6.66383
75.4	6.61833
75.62	7.21729
75.84	4.09304
76.06	3.83064
76.28	8.69765
76.5	4.58639
76.72	2.59475
76.94	3.66394
77.16	2.76122
77.38	4.88056
77.6	1.88044
77.82	6.99646
78.04	0.733061
78.26	4.39363
78.48	6.30106
78.7	2.1553
78.92	3.03118
79.14	1.84403
79.36	6.88496
79.58	3.50751
79.8	2.26171
80.02	0.933568
80.24	4.8498
80.46	8.53364
80.68	12.3438
80.9	10.4161
81.12	10.5772
81.34	0.228762
81.56	7.02971
81.78	3.10319
82	3.32345
82.22	4.71705
82.44	2.95615
82.66	7.16158
82.88	3.35124
83.1	1.59266
83.32	0.405784
83.54	1.43448
83.76	2.31352
83.98	6.43595
84.2	8.29507
84.42	4.2459
84.64	1.99065
84.86	9.96884
85.08	1.10975
85.3	4.80175
85.52	2.66327
85.74	5.71882
85.96	1.20339
86.18	1.97552
86.4	3.9032
86.62	0.977814
86.84	6.19629
87.06	10.2771
87.28	0.287794
87.5	0.631353
87.72	3.48218
87.94	0.409843
88.16	4.60259
88.38	9.66159
88.6	5.57721
88.82	10.5929
89.04	1.46285
89.26	6.57486
89.48	1.69557
89.7	3.92168
89.92	2.75753
