Measurement: Powder, Xray Data XY Processed
Mineral: Metavariscite
Rruff sample: R050461
Ideal chemistry: AlPO_4_2H_2_O
Locality: Utahlite Hill, Lucin, Utah, USA
Source: University of Arizona Mineral Museum
Description: Group of pale green acicular bladed crystals
Diffraction sample description: Powder
Measured chemistry: Al_1.00_P_1.00_O_4_Â·2H_2_O
Cell parameters: a: 5.1829(1) b: 9.5142(2) c: 8.4522(2) alpha: 90 beta: 90.419(2) gamma: 90 volume: 416.78(1) crystal system: monoclinic
x	intensity
5	0
5.22	6.95679
5.44	11.7229
5.66	7.51295
5.88	8.21322
6.1	0.201685
6.32	2.98016
6.54	12.7764
6.76	6.84008
6.98	9.79438
7.2	7.62099
7.42	10.3849
7.64	8.47761
7.86	1.54035
8.08	15.2564
8.3	17.393
8.52	7.00167
8.74	10.5644
8.96	13.9247
9.18	9.23669
9.4	6.67313
9.62	11.1648
9.84	12.4512
10.06	8.73866
10.28	9.08984
10.5	8.4125
10.72	16.3087
10.94	5.13919
11.16	3.16982
11.38	5.40941
11.6	17.2507
11.82	12.5699
12.04	13.6881
12.26	13.9603
12.48	8.34771
12.7	17.862
12.92	3.49598
13.14	1.19376
13.36	10.137
13.58	4.16616
13.8	9.28225
14.02	295.806
14.24	15.4184
14.46	12.3575
14.68	11.428
14.9	4.99945
15.12	3.15321
15.34	5.67018
15.56	0.256632
15.78	3.28927
16	6.55288
16.22	11.935
16.44	12.8536
16.66	20.5314
16.88	11.8048
17.1	3.55792
17.32	0.112245
17.54	2.21692
17.76	6.55576
17.98	0.883728
18.2	2.7416
18.42	14.1957
18.64	159.122
18.86	23.4182
19.08	10.732
19.3	12.4904
19.52	684.134
19.74	23.0345
19.96	11.081
20.18	44.2596
20.4	6.16697
20.62	17.389
20.84	72.3893
21.06	1150.84
21.28	15.4259
21.5	56.7106
21.72	1.42402
21.94	5.05354
22.16	93.0465
22.38	15.3782
22.6	9.77228
22.82	13.5144
23.04	8.95835
23.26	0.589072
23.48	0.899938
23.7	9.66732
23.92	5.31075
24.14	5.31672
24.36	2.14403
24.58	8.702
24.8	8.63542
25.02	10.4671
25.24	6.24772
25.46	665.764
25.68	12.9713
25.9	8.63584
26.12	3.05828
26.34	4.78601
26.56	21.4976
26.78	177.643
27	4.63537
27.22	10.5718
27.44	6.28752
27.66	82.1342
27.88	0.652617
28.1	4.77381
28.32	2.73893
28.54	8.50373
28.76	82.4562
28.98	9.5831
29.2	12.8015
29.42	79.8618
29.64	9.70983
29.86	7.98347
30.08	12.1734
30.3	6.15181
30.52	12.4228
30.74	25.975
30.96	10.2232
31.18	36.5679
31.4	2.52229
31.62	6.97913
31.84	7.73056
32.06	0.509334
32.28	6.99905
32.5	4.72548
32.72	6.50549
32.94	10.7041
33.16	770.451
33.38	102.726
33.6	3.26588
33.82	7.1373
34.04	4.96521
34.26	0.289391
34.48	1.36689
34.7	15.8173
34.92	58.642
35.14	5.43378
35.36	1.2569
35.58	1.47777
35.8	1.28639
36.02	91.1303
36.24	40.218
36.46	62.0324
36.68	27.7531
36.9	8.19445
37.12	85.7279
37.34	2.16866
37.56	51.6546
37.78	16.5894
38	3.56501
38.22	8.57457
38.44	0.931227
38.66	4.04418
38.88	2.62144
39.1	1.97597
39.32	44.7224
39.54	89.0414
39.76	25.9513
39.98	2.77972
40.2	6.16482
40.42	8.72802
40.64	13.682
40.86	34.576
41.08	56.6675
41.3	14.5918
41.52	5.9763
41.74	8.74578
41.96	28.2211
42.18	9.09078
42.4	6.00181
42.62	10.788
42.84	18.631
43.06	10.7638
43.28	26.2112
43.5	0.802952
43.72	13.1008
43.94	53.3458
44.16	11.7784
44.38	11.9847
44.6	2.50247
44.82	0.65118
45.04	1.86272
45.26	24.956
45.48	3.04984
45.7	3.54522
45.92	0.998031
46.14	9.05039
46.36	16.1104
46.58	168.023
46.8	14.6952
47.02	20.7881
47.24	18.2095
47.46	5.50516
47.68	7.03661
47.9	3.16307
48.12	8.46679
48.34	7.7577
48.56	0.350028
48.78	16.5948
49	17.7575
49.22	15.8276
49.44	7.72354
49.66	11.1144
49.88	3.06679
50.1	6.74643
50.32	22.7979
50.54	14.5496
50.76	4.25974
50.98	7.61584
51.2	10.4379
51.42	13.3199
51.64	6.37609
51.86	16.9867
52.08	10.8874
52.3	0.20089
52.52	10.9177
52.74	25.9303
52.96	3.70878
53.18	5.16757
53.4	26.5679
53.62	40.6117
53.84	5.62906
54.06	7.86212
54.28	1.82902
54.5	1.88613
54.72	9.80351
54.94	16.7258
55.16	50.5152
55.38	30.7185
55.6	6.11661
55.82	7.7153
56.04	3.57663
56.26	11.1185
56.48	0.317971
56.7	84.8115
56.92	7.8541
57.14	13.2417
57.36	26.0783
57.58	3.0102
57.8	3.37509
58.02	5.23651
58.24	39.3963
58.46	17.4378
58.68	18.1652
58.9	14.2937
59.12	0.867533
59.34	5.74758
59.56	3.66581
59.78	3.6946
60	37.4635
60.22	15.8961
60.44	11.8969
60.66	0.551891
60.88	11.3859
61.1	21.868
61.32	19.0611
61.54	20.4003
61.76	4.8817
61.98	3.69111
62.2	23.4289
62.42	20.5403
62.64	14.3395
62.86	8.89208
63.08	3.52014
63.3	2.75661
63.52	5.95157
63.74	24.0135
63.96	9.14014
64.18	25.9275
64.4	17.5623
64.62	9.16623
64.84	3.03593
65.06	7.71291
65.28	7.61334
65.5	7.70086
65.72	11.8397
65.94	7.00279
66.16	4.81311
66.38	15.5893
66.6	14.8385
66.82	15.9871
67.04	4.94729
67.26	6.60116
67.48	5.57573
67.7	5.58063
67.92	7.3226
68.14	5.19005
68.36	19.7981
68.58	5.58931
68.8	2.41209
69.02	11.2703
69.24	8.93302
69.46	38.7314
69.68	23.6077
69.9	12.8272
70.12	9.15768
70.34	4.61405
70.56	29.9547
70.78	14.3722
71	4.90361
71.22	0.586173
71.44	2.44303
71.66	7.73705
71.88	5.92567
72.1	11.0772
72.32	6.91815
72.54	7.28558
72.76	0.826496
72.98	32.8706
73.2	12.9359
73.42	5.96762
73.64	4.66201
73.86	3.49621
74.08	9.76563
74.3	0.493513
74.52	0.614077
74.74	8.73914
74.96	5.982
75.18	6.44456
75.4	1.6017
75.62	13.3222
75.84	9.6202
76.06	16.3932
76.28	8.77301
76.5	0.138632
76.72	0.152303
76.94	1.7453
77.16	9.48347
77.38	15.0489
77.6	8.45233
77.82	12.1319
78.04	18.1018
78.26	15.2756
78.48	4.63126
78.7	5.07734
78.92	7.31291
79.14	7.5896
79.36	0.84924
79.58	1.93333
79.8	0.461986
80.02	13.6692
80.24	2.84802
80.46	17.8392
80.68	13.3956
80.9	1.62093
81.12	1.00957
81.34	6.37383
81.56	7.41944
81.78	22.4691
82	19.6632
82.22	14.343
82.44	6.35382
82.66	4.25008
82.88	10.1524
83.1	9.10706
83.32	12.7322
83.54	8.51961
83.76	6.27636
83.98	1.36142
84.2	0.925904
84.42	3.11597
84.64	8.73305
84.86	1.92237
85.08	9.23426
85.3	3.52929
85.52	12.0108
85.74	7.11789
85.96	12.3314
86.18	4.68492
86.4	10.9828
86.62	4.5081
86.84	3.87856
87.06	11.5819
87.28	7.85688
87.5	10.8843
87.72	1.69428
87.94	6.58885
88.16	8.68317
88.38	17.7425
88.6	5.8516
88.82	5.71353
89.04	5.62094
89.26	3.50277
89.48	7.73575
89.7	3.94075
89.92	9.29256
