Measurement: Powder, Xray Data XY Processed
Mineral: Miargyrite
Rruff sample: R050440
Ideal chemistry: Ag^1+^Sb^3+^S^2-^_2_
Locality: Saint Andreasberg, Harz Mountains, Niedersachsen, Germany
Source: University of Arizona Mineral Museum
Description: Black prismatic crystals
Diffraction sample description: Single crystal, powder profile is calculated
Measured chemistry: Ag_1.00_Sb_1.00_S_2.00_
Cell parameters: a: 12.872(3) b: 4.404(2) c: 13.214(4) alpha: 90 beta: 98.48(2) gamma: 90 volume: 740.8(5) crystal system: monoclinic
x	intensity
5	0
5.22	0
5.44	0
5.66	0
5.88	0
6.1	0
6.32	0
6.54	0
6.76	0
6.98	0
7.2	0
7.42	0
7.64	0
7.86	0
8.08	0
8.3	0
8.52	0
8.74	0
8.96	0
9.18	0
9.4	0
9.62	0
9.84	0
10.06	0
10.28	0
10.5	0
10.72	0
10.94	0
11.16	0
11.38	0
11.6	0
11.82	0
12.04	0
12.26	0
12.48	0
12.7	0
12.92	0
13.14	0
13.36	0
13.58	0.947
13.8	0.001
14.02	0.004
14.24	0
14.46	0
14.68	0
14.9	0
15.12	0
15.34	0
15.56	0
15.78	0
16	0
16.22	0
16.44	0
16.66	0
16.88	0
17.1	0
17.32	0
17.54	0
17.76	0
17.98	0.124
18.2	0
18.42	0
18.64	0
18.86	0
19.08	0
19.3	0
19.52	0
19.74	0
19.96	0
20.18	0
20.4	0
20.62	0
20.84	1.901
21.06	0
21.28	0.033
21.5	0
21.72	0
21.94	0
22.16	0.204
22.38	0
22.6	0
22.82	0.002
23.04	0
23.26	0
23.48	0
23.7	0
23.92	0
24.14	0
24.36	0
24.58	0
24.8	0.214
25.02	0
25.24	0
25.46	0
25.68	0
25.9	91.49
26.12	0
26.34	0
26.56	0
26.78	0
27	0
27.22	0.091
27.44	0.001
27.66	0
27.88	0.002
28.1	11.498
28.32	0
28.54	0
28.76	15.015
28.98	0.625
29.2	1.428
29.42	0.27
29.64	0
29.86	0
30.08	0
30.3	0.017
30.52	0.048
30.74	0.36
30.96	79.745
31.18	0
31.4	0
31.62	0
31.84	0
32.06	0
32.28	0
32.5	3.952
32.72	2.342
32.94	0
33.16	0.006
33.38	0
33.6	0.052
33.82	0.001
34.04	2.359
34.26	0
34.48	0
34.7	0
34.92	0
35.14	0
35.36	0
35.58	0
35.8	0.016
36.02	0
36.24	0
36.46	0.008
36.68	0
36.9	0
37.12	0
37.34	0
37.56	0
37.78	0.034
38	0
38.22	0
38.44	0
38.66	0
38.88	0
39.1	0
39.32	0
39.54	0
39.76	0.678
39.98	0.027
40.2	0
40.42	0
40.64	0.366
40.86	0.343
41.08	4.06
41.3	0
41.52	3.119
41.74	0.246
41.96	0.002
42.18	0
42.4	0.585
42.62	0.031
42.84	0.154
43.06	0.36
43.28	0.002
43.5	0.047
43.72	0.015
43.94	0
44.16	0
44.38	0.576
44.6	0.001
44.82	0
45.04	18.821
45.26	0.006
45.48	0
45.7	0
45.92	0.451
46.14	8.39
46.36	0.007
46.58	0.014
46.8	0.01
47.02	0.007
47.24	0
47.46	10.088
47.68	1.025
47.9	0
48.12	0.288
48.34	0.001
48.56	1.995
48.78	0.187
49	0
49.22	0
49.44	0.653
49.66	0
49.88	0.033
50.1	0.003
50.32	10.714
50.54	2.05
50.76	1.848
50.98	7.11
51.2	0.089
51.42	0.007
51.64	0.017
51.86	0
52.08	0
52.3	0
52.52	0
52.74	1.185
52.96	0.53
53.18	0.174
53.4	3.398
53.62	0.093
53.84	0.001
54.06	0.01
54.28	1.305
54.5	1.469
54.72	0.025
54.94	2.922
55.16	0.05
55.38	3.371
55.6	0.018
55.82	0.03
56.04	0.069
56.26	2.963
56.48	0.328
56.7	0.006
56.92	0
57.14	0
57.36	0
57.58	0.037
57.8	0.108
58.02	1.96
58.24	0.007
58.46	0.133
58.68	0.042
58.9	0
59.12	0
59.34	0
59.56	0.634
59.78	2.557
60	0.006
60.22	0.007
60.44	0.161
60.66	0.107
60.88	0.095
61.1	0.001
61.32	0.025
61.54	0.008
61.76	0.156
61.98	0.426
62.2	0.807
62.42	0.038
62.64	0
62.86	0
63.08	0
63.3	0
63.52	0
63.74	0.09
63.96	0.237
64.18	0.142
64.4	0.672
64.62	1.168
64.84	0
65.06	0.112
65.28	0.124
65.5	0.251
65.72	0.723
65.94	1.622
66.16	0
66.38	0
66.6	0
66.82	0.045
67.04	0.087
67.26	0.019
67.48	0.7
67.7	0.382
67.92	0.001
68.14	0.344
68.36	1.245
68.58	0.685
68.8	0
69.02	0.037
69.24	0.065
69.46	0.008
69.68	0.005
69.9	0.026
70.12	0.48
70.34	0.247
70.56	0
70.78	1.453
71	0.348
71.22	0.04
71.44	0.033
71.66	0.133
71.88	2.878
72.1	1.687
72.32	0.004
72.54	0.004
72.76	0.159
72.98	0.078
73.2	0.006
73.42	0.249
73.64	0.205
73.86	0.302
74.08	0.257
74.3	0.117
74.52	0.325
74.74	0.798
74.96	0.617
75.18	0.138
75.4	0.015
75.62	0.28
75.84	0.14
76.06	3.923
76.28	2.047
76.5	0.008
76.72	0.003
76.94	0.024
77.16	0.299
77.38	0.406
77.6	0.993
77.82	0.7
78.04	0.051
78.26	0.282
78.48	0.204
78.7	0.012
78.92	0.012
79.14	0.002
79.36	0
79.58	0.004
79.8	0.045
80.02	0.148
80.24	0.023
80.46	0.171
80.68	0.09
80.9	0.017
81.12	0.014
81.34	0.407
81.56	0.268
81.78	0.013
82	0.026
82.22	0.05
82.44	0.067
82.66	0.106
82.88	0.015
83.1	0.036
83.32	0.298
83.54	0.104
83.76	0.026
83.98	0.07
84.2	0.023
84.42	0.184
84.64	0.674
84.86	0.179
85.08	0.078
85.3	0.04
85.52	0.472
85.74	0.886
85.96	0.707
86.18	0.98
86.4	0.137
86.62	0.027
86.84	0.018
87.06	0.015
87.28	0.056
87.5	0.004
87.72	0.007
87.94	0.018
88.16	1.484
88.38	0.756
88.6	0.022
88.82	1.106
89.04	0.412
89.26	0.117
89.48	0.082
89.7	0.013
89.92	0.024
