Measurement: Powder, Xray Data XY Processed
Mineral: Miargyrite
Rruff sample: R050480
Ideal chemistry: Ag^1+^Sb^3+^S^2-^_2_
Locality: Boulder County, Colorado, USA
Source: California Institute of Technology
Description: Dark gray metallic fragment, hints of internal red
Diffraction sample description: Powder
Measured chemistry: Ag_1.00_Sb_1.00_S_2.00_
Cell parameters: a: 12.864(2) b: 4.4124(7) c: 13.224(2) alpha: 90 beta: 98.54(1) gamma: 90 volume: 742.3(0) crystal system: monoclinic
x	intensity
5	0
5.22	8.415
5.44	1.67
5.66	7.298
5.88	9.313
6.1	3.245
6.32	14.263
6.54	2.349
6.76	1.498
6.98	2.644
7.2	3.833
7.42	6.236
7.64	3.61
7.86	5.894
8.08	3.129
8.3	6.545
8.52	0.227
8.74	4.977
8.96	0.877
9.18	0.094
9.4	3.173
9.62	6.21
9.84	6.072
10.06	4.938
10.28	3.06
10.5	5.112
10.72	1.919
10.94	2.911
11.16	7.025
11.38	1.843
11.6	0.564
11.82	12.25
12.04	6.203
12.26	6.225
12.48	3.332
12.7	1.146
12.92	4.189
13.14	6.292
13.36	7.323
13.58	8.278
13.8	2.203
14.02	2.296
14.24	3.436
14.46	0.707
14.68	5.752
14.9	5.744
15.12	2.034
15.34	2.902
15.56	3.175
15.78	5.861
16	3.935
16.22	1.997
16.44	4.768
16.66	9.682
16.88	12.43
17.1	2.556
17.32	7.449
17.54	6.371
17.76	5.406
17.98	4.581
18.2	5.737
18.42	6.71
18.64	0.725
18.86	8.753
19.08	5.799
19.3	3.894
19.52	3.652
19.74	0.44
19.96	4.296
20.18	4.213
20.4	0.939
20.62	10.552
20.84	32.273
21.06	1.104
21.28	3.951
21.5	5.921
21.72	6.904
21.94	2.215
22.16	3.216
22.38	4.601
22.6	9.539
22.82	12.556
23.04	3.48
23.26	2.443
23.48	2.256
23.7	6.574
23.92	21.148
24.14	3.499
24.36	1.342
24.58	4.077
24.8	6.108
25.02	7.473
25.24	2.848
25.46	4.589
25.68	31.994
25.9	126.69
26.12	31.489
26.34	13.824
26.56	16.256
26.78	8.146
27	9.078
27.22	6.961
27.44	2.122
27.66	5.719
27.88	12.533
28.1	63.369
28.32	12.705
28.54	5.264
28.76	69.117
28.98	14.453
29.2	34.537
29.42	118.402
29.64	1.029
29.86	5.934
30.08	3.781
30.3	0.596
30.52	9.792
30.74	36.543
30.96	167.411
31.18	39.571
31.4	5.737
31.62	5.434
31.84	7.671
32.06	4.904
32.28	4.132
32.5	51.862
32.72	41.415
32.94	11.639
33.16	0.432
33.38	5.141
33.6	1.998
33.82	0.577
34.04	34.216
34.26	6.141
34.48	0.36
34.7	2.212
34.92	10.355
35.14	8.599
35.36	4.764
35.58	7.938
35.8	5.908
36.02	2.794
36.24	20.915
36.46	9.84
36.68	10.862
36.9	5.115
37.12	3.169
37.34	3.215
37.56	1.483
37.78	2.676
38	6.854
38.22	4.03
38.44	4.079
38.66	9.068
38.88	7.104
39.1	7.783
39.32	3.233
39.54	5.965
39.76	5.668
39.98	4.209
40.2	15.913
40.42	4.434
40.64	11.158
40.86	14.035
41.08	6.166
41.3	8.013
41.52	8.259
41.74	3.506
41.96	9.699
42.18	9.402
42.4	16.878
42.62	8.919
42.84	0.073
43.06	9.007
43.28	6.721
43.5	9.638
43.72	9.143
43.94	10.428
44.16	8.714
44.38	4.025
44.6	1.796
44.82	4.911
45.04	39.327
45.26	10.873
45.48	1.586
45.7	7.656
45.92	20.431
46.14	31.539
46.36	13.767
46.58	0.924
46.8	2.52
47.02	0.004
47.24	14.993
47.46	21.651
47.68	13.961
47.9	9.874
48.12	2.749
48.34	14.01
48.56	10.021
48.78	10.024
49	38.758
49.22	7.594
49.44	0.679
49.66	2.188
49.88	5.05
50.1	10.972
50.32	22.268
50.54	24.606
50.76	16.258
50.98	17.546
51.2	8.073
51.42	7.942
51.64	3.28
51.86	13.421
52.08	0.497
52.3	8.505
52.52	5.421
52.74	2.074
52.96	3.372
53.18	9.951
53.4	0.478
53.62	6.641
53.84	2.938
54.06	5.733
54.28	13.675
54.5	16.957
54.72	10.804
54.94	8.137
55.16	8.679
55.38	7.277
55.6	1.001
55.82	5.649
56.04	5.545
56.26	9.258
56.48	5.779
56.7	8.15
56.92	2.067
57.14	2.863
57.36	4.992
57.58	1.955
57.8	8
58.02	21.067
58.24	31.702
58.46	4.636
58.68	6.396
58.9	3.366
59.12	2.534
59.34	7.687
59.56	15.01
59.78	8.399
60	13.718
60.22	2.119
60.44	0.139
60.66	1.348
60.88	1.549
61.1	2.718
61.32	4.879
61.54	3.052
61.76	3.843
61.98	6.131
62.2	6.338
62.42	14.41
62.64	7.141
62.86	7.014
63.08	0.956
63.3	3.861
63.52	0.719
63.74	7.558
63.96	6.437
64.18	10.465
64.4	13.175
64.62	7.665
64.84	1.435
65.06	8.519
65.28	9.616
65.5	5.692
65.72	6.689
65.94	8.709
66.16	8.714
66.38	0.75
66.6	7.684
66.82	10.655
67.04	3.784
67.26	10.755
67.48	2.378
67.7	11.139
67.92	4.1
68.14	5.178
68.36	13.222
68.58	8.485
68.8	3.46
69.02	12.447
69.24	6.631
69.46	1.464
69.68	1.4
69.9	9.296
70.12	8.735
70.34	1.369
70.56	6.585
70.78	3.483
71	2.278
71.22	9.308
71.44	8.301
71.66	13.335
71.88	9.307
72.1	4.304
72.32	5.149
72.54	8.144
72.76	5.079
72.98	4.221
73.2	11.366
73.42	4.273
73.64	7.142
73.86	10.021
74.08	4.832
74.3	0.092
74.52	0.121
74.74	0.857
74.96	6.854
75.18	1.853
75.4	2.061
75.62	9.066
75.84	6.118
76.06	15.036
76.28	3.954
76.5	9.801
76.72	6.817
76.94	1.801
77.16	1.891
77.38	5.88
77.6	9.981
77.82	2.817
78.04	7.881
78.26	14.971
78.48	3.123
78.7	3.478
78.92	3.971
79.14	2.202
79.36	3.382
79.58	1.615
79.8	6.831
80.02	8.941
80.24	2.928
80.46	1.868
80.68	4.023
80.9	6.414
81.12	3.248
81.34	7.905
81.56	2.809
81.78	6.817
82	4.609
82.22	11.598
82.44	7.6
82.66	4.494
82.88	3.337
83.1	3.463
83.32	6.022
83.54	3.918
83.76	3.942
83.98	0.936
84.2	3.858
84.42	3.758
84.64	8.822
84.86	4.833
85.08	4.714
85.3	4.447
85.52	4.508
85.74	9.834
85.96	2.073
86.18	11.984
86.4	8.034
86.62	7.044
86.84	3.971
87.06	4.989
87.28	3.928
87.5	0.02
87.72	7.046
87.94	1.119
88.16	9.874
88.38	5.111
88.6	2.395
88.82	3.449
89.04	7.681
89.26	4.031
89.48	6.561
89.7	8.192
89.92	14.597
