Measurement: Powder, Xray Data XY Processed
Mineral: Microcline
Rruff sample: R050193
Ideal chemistry: KAlSi_3_O_8_
Locality: Devil's Head, Douglas County, Colorado, USA
Source: Dave Bunk Minerals
Description: White to colorless heterogeneous mixture of K and Na feldspar in a cluster of crystals. Crystal structure determined, presented below. This sample is known as an intermediate microcline in the literature.
Diffraction sample description: Powder
Measured chemistry: (K_0.929_Na_0.071_)(Al_1.005_Si_2.994_Fe_0.001_)O_7.993_F_0.007_  ; Light Band :  (Na_0.973_K_0.007_Ca_0.020_)(Al_1.020_Si_2.980_)O_8_ ; Dark Band
Cell parameters: a: 8.5886(6) b: 12.976(2) c: 7.224(2) alpha: 90.33(1) beta: 116.08(1) gamma: 89.07(2) volume: 723.0(0) crystal system: triclinic
x	intensity
5	0
5.22	8.93693
5.44	7.01614
5.66	6.28001
5.88	12.9123
6.1	6.87473
6.32	0.939911
6.54	9.83714
6.76	1.98939
6.98	7.35687
7.2	4.60482
7.42	8.75099
7.64	7.62242
7.86	7.84429
8.08	1.42023
8.3	6.06975
8.52	10.4128
8.74	10.4626
8.96	6.75209
9.18	2.82478
9.4	10.6151
9.62	2.48862
9.84	4.44623
10.06	10.6672
10.28	5.45266
10.5	0.307287
10.72	8.88797
10.94	7.90583
11.16	4.99363
11.38	7.62834
11.6	7.51175
11.82	2.75296
12.04	3.7234
12.26	4.55018
12.48	1.39066
12.7	9.16612
12.92	6.81778
13.14	0.245546
13.36	4.93216
13.58	12.9521
13.8	9.38165
14.02	8.2683
14.24	0.1061
14.46	9.39245
14.68	11.4677
14.9	6.49927
15.12	20.5654
15.34	6.84337
15.56	7.63292
15.78	5.70556
16	2.723
16.22	1.90095
16.44	4.13742
16.66	1.44017
16.88	4.28269
17.1	2.40414
17.32	4.57183
17.54	1.99152
17.76	0.879836
17.98	2.96068
18.2	2.89102
18.42	8.05748
18.64	0.617741
18.86	10.6074
19.08	6.35899
19.3	7.32144
19.52	2.51077
19.74	5.2245
19.96	5.84327
20.18	5.53401
20.4	4.53855
20.62	18.7994
20.84	7.41398
21.06	178.423
21.28	13.439
21.5	6.62885
21.72	1.97028
21.94	6.99402
22.16	61.9425
22.38	21.8866
22.6	51.7871
22.82	0.469535
23.04	9.18695
23.26	4.03398
23.48	35.2032
23.7	72.6855
23.92	14.2406
24.14	13.3157
24.36	73.0629
24.58	14.1761
24.8	8.70069
25.02	4.38027
25.24	9.89862
25.46	22.7356
25.68	143.814
25.9	5.87985
26.12	1.442
26.34	2.62238
26.56	31.621
26.78	38.4161
27	124.376
27.22	57.1414
27.44	63.1079
27.66	88.3847
27.88	72.8613
28.1	72.4743
28.32	44.7446
28.54	0.545186
28.76	3.47671
28.98	1.19179
29.2	5.67328
29.42	3.93983
29.64	33.1316
29.86	85.7787
30.08	42.7334
30.3	32.2682
30.52	40.5941
30.74	23.1315
30.96	40.7193
31.18	1.08088
31.4	4.67977
31.62	6.48886
31.84	7.51086
32.06	8.26977
32.28	17.0946
32.5	20.3671
32.72	8.80374
32.94	1.83812
33.16	4.97837
33.38	0.296436
33.6	9.46912
33.82	1.01897
34.04	9.47861
34.26	6.74428
34.48	24.3232
34.7	8.6084
34.92	33.0993
35.14	48.1648
35.36	10.5297
35.58	16.6159
35.8	4.6898
36.02	3.98855
36.24	15.233
36.46	4.44609
36.68	11.6218
36.9	10.8699
37.12	16.2439
37.34	13.3416
37.56	15.1768
37.78	13.0914
38	6.51749
38.22	1.37022
38.44	4.6543
38.66	23.1744
38.88	20.6862
39.1	1.04256
39.32	4.11357
39.54	2.17585
39.76	8.98942
39.98	3.92322
40.2	13.7553
40.42	2.81472
40.64	4.17115
40.86	1.9067
41.08	4.48365
41.3	10.1338
41.52	5.82881
41.74	14.6165
41.96	13.7678
42.18	9.0415
42.4	13.1408
42.62	23.1839
42.84	18.6786
43.06	1.79606
43.28	2.10168
43.5	10.6506
43.72	24.6483
43.94	6.9426
44.16	14.9253
44.38	4.48945
44.6	0.070853
44.82	4.91198
45.04	5.71471
45.26	4.52712
45.48	14.6864
45.7	13.5514
45.92	14.8989
46.14	17.765
46.36	4.41234
46.58	1.51615
46.8	4.66091
47.02	6.62843
47.24	23.6995
47.46	9.62689
47.68	10.5605
47.9	2.09546
48.12	9.58703
48.34	9.21837
48.56	1.06981
48.78	8.45292
49	10.7778
49.22	25.4366
49.44	8.10343
49.66	6.75333
49.88	10.51
50.1	17.4149
50.32	1.68009
50.54	21.456
50.76	74.0684
50.98	21.0302
51.2	20.6217
51.42	6.33439
51.64	7.91315
51.86	0.486445
52.08	5.0481
52.3	11.4682
52.52	10.1163
52.74	18.4476
52.96	6.20053
53.18	16.2471
53.4	14.8844
53.62	3.1465
53.84	2.14729
54.06	2.15653
54.28	2.21861
54.5	7.46754
54.72	5.60353
54.94	9.34718
55.16	9.18404
55.38	8.12445
55.6	5.11081
55.82	8.005
56.04	6.23965
56.26	10.3783
56.48	5.07076
56.7	17.875
56.92	8.36465
57.14	5.27662
57.36	0.104778
57.58	1.94099
57.8	6.77278
58.02	1.74796
58.24	9.66516
58.46	1.59466
58.68	24.7997
58.9	10.0033
59.12	4.53569
59.34	2.65772
59.56	0.277376
59.78	0.969165
60	4.15916
60.22	7.273
60.44	15.1212
60.66	6.98048
60.88	6.4537
61.1	0.057831
61.32	10.93
61.54	4.46969
61.76	3.39821
61.98	11.5915
62.2	17.0015
62.42	14.8977
62.64	8.57565
62.86	6.4155
63.08	4.22967
63.3	1.96436
63.52	16.6307
63.74	10.1237
63.96	21.9993
64.18	6.65214
64.4	6.08014
64.62	5.34951
64.84	5.52312
65.06	1.7674
65.28	13.9593
65.5	11.141
65.72	7.13712
65.94	5.43996
66.16	9.87354
66.38	15
66.6	0.323027
66.82	4.34458
67.04	3.54799
67.26	1.48214
67.48	4.70843
67.7	7.96117
67.92	9.52124
68.14	9.98897
68.36	5.1116
68.58	2.12205
68.8	6.21278
69.02	8.30803
69.24	3.33119
69.46	8.5874
69.68	14.8796
69.9	0.643668
70.12	8.76032
70.34	2.48175
70.56	3.37724
70.78	4.33697
71	14.583
71.22	1.52544
71.44	2.4232
71.66	18.456
71.88	16.3192
72.1	2.03235
72.32	3.21436
72.54	3.02373
72.76	3.72206
72.98	1.61585
73.2	5.65617
73.42	12.3164
73.64	4.22335
73.86	11.2389
74.08	11.218
74.3	3.34472
74.52	4.40525
74.74	7.38414
74.96	0.753977
75.18	8.28578
75.4	4.97728
75.62	11.2979
75.84	0.815228
76.06	1.21824
76.28	1.64757
76.5	0.789698
76.72	1.14328
76.94	4.30183
77.16	2.40998
77.38	1.33385
77.6	5.31872
77.82	1.00121
78.04	2.90421
78.26	1.19114
78.48	8.17773
78.7	11.2101
78.92	4.16236
79.14	0.960117
79.36	6.03524
79.58	7.98044
79.8	6.03758
80.02	10.2197
80.24	11.4663
80.46	5.48241
80.68	4.98987
80.9	0.050218
81.12	5.04936
81.34	4.04805
81.56	11.08
81.78	7.06768
82	11.2049
82.22	5.2714
82.44	9.27698
82.66	2.2567
82.88	8.43123
83.1	6.42441
83.32	6.35312
83.54	1.30377
83.76	6.27393
83.98	10.1845
84.2	6.13562
84.42	3.11133
84.64	7.26364
84.86	6.03313
85.08	8.93518
85.3	2.81789
85.52	2.9782
85.74	2.01941
85.96	1.28413
86.18	2.58182
86.4	2.81438
86.62	1.92654
86.84	1.97813
87.06	5.79391
87.28	4.89507
87.5	4.96713
87.72	7.9896
87.94	1.08346
88.16	6.00704
88.38	2.08081
88.6	9.01828
88.82	2.11964
89.04	7.24037
89.26	11.4136
89.48	5.70468
89.7	3.96105
89.92	9.77994
