Measurement: Powder, Xray Data XY Processed
Mineral: Mimetite
Rruff sample: R050007
Ideal chemistry: Pb^2+^_5_(As^5+^O_4_)_3_Cl
Locality: Pingtouling, Guangdong, China
Source: Eugene Schlepp
Description: Reddish orange colored hexagonal prisms
Diffraction sample description: Powder
Measured chemistry: Pb_5.00_((As_0.99_P_0.01_)O_4_)_3_Cl_1.00_
Cell parameters: a: 10.2472(3) b: 10.2472(3) c: 7.4535(3) alpha: 90. beta: 90. gamma: 120. volume: 677.81(3) crystal system: hexagonal
x	intensity
5	0
5.22	1.839
5.44	3.09
5.66	4.557
5.88	0.668
6.1	12.3
6.32	13.359
6.54	11.667
6.76	16.61
6.98	12.479
7.2	1.72
7.42	0.013
7.64	4.245
7.86	3.353
8.08	1.458
8.3	2.499
8.52	2.486
8.74	4.436
8.96	2.074
9.18	8.004
9.4	6.947
9.62	4.945
9.84	8.749
10.06	9.618
10.28	5.636
10.5	8.836
10.72	9.156
10.94	12.109
11.16	3.285
11.38	0.548
11.6	2.525
11.82	8.672
12.04	5.438
12.26	5.498
12.48	7.589
12.7	7.436
12.92	2.244
13.14	4.23
13.36	1.286
13.58	3.246
13.8	5.362
14.02	5.419
14.24	3.39
14.46	7.411
14.68	1.563
14.9	0.641
15.12	9.782
15.34	3.964
15.56	9.957
15.78	1.824
16	0.178
16.22	1.797
16.44	0.849
16.66	6.786
16.88	0.731
17.1	3.668
17.32	21.731
17.54	2.716
17.76	6.536
17.98	0.673
18.2	1.357
18.42	15.29
18.64	2.296
18.86	3.1
19.08	1.005
19.3	5.946
19.52	4.751
19.74	7.036
19.96	12.706
20.18	4.645
20.4	7.602
20.62	3.445
20.84	4.374
21.06	101.308
21.28	6.58
21.5	11.699
21.72	7.714
21.94	5.047
22.16	0.309
22.38	3.812
22.6	1.972
22.82	3.958
23.04	1.175
23.26	3.784
23.48	5.704
23.7	3.557
23.92	116.462
24.14	3.517
24.36	0.821
24.58	3.11
24.8	1.892
25.02	7.62
25.24	5.518
25.46	4.382
25.68	3.713
25.9	25.509
26.12	13.507
26.34	15.639
26.56	47.604
26.78	17.932
27	2.584
27.22	6.581
27.44	0.477
27.66	6.057
27.88	1.447
28.1	1.889
28.32	6.825
28.54	1.012
28.76	7.989
28.98	7.108
29.2	290.225
29.42	51.211
29.64	182.866
29.86	32.142
30.08	14.568
30.3	143.029
30.52	9.751
30.74	4.117
30.96	0.222
31.18	11.216
31.4	11.961
31.62	4.96
31.84	10.332
32.06	4.956
32.28	5.825
32.5	8.899
32.72	6.066
32.94	3.852
33.16	6.567
33.38	19.439
33.6	5.28
33.82	4.455
34.04	0.151
34.26	7.114
34.48	2.965
34.7	2.071
34.92	4.089
35.14	4.302
35.36	3.447
35.58	3.568
35.8	0.55
36.02	2.401
36.24	3.454
36.46	3.526
36.68	8.786
36.9	6.88
37.12	8.725
37.34	1.655
37.56	2.37
37.78	1.01
38	9.876
38.22	10.724
38.44	2.679
38.66	19.79
38.88	19.425
39.1	3.149
39.32	5.07
39.54	2.044
39.76	1.024
39.98	1.755
40.2	4.263
40.42	17.404
40.64	10.432
40.86	22.392
41.08	10.94
41.3	4.842
41.52	3.803
41.74	6.696
41.96	0.44
42.18	0.423
42.4	3.126
42.62	10.457
42.84	136.254
43.06	21.006
43.28	6.92
43.5	5.752
43.72	11.368
43.94	16.586
44.16	56.375
44.38	9.187
44.6	13.977
44.82	12.465
45.04	0.899
45.26	13.41
45.48	137.547
45.7	8.282
45.92	6.898
46.14	8.79
46.36	56.386
46.58	2.667
46.8	5.25
47.02	45.614
47.24	6.333
47.46	1.377
47.68	72.878
47.9	68.625
48.12	2.836
48.34	13.204
48.56	1.529
48.78	14.919
49	23.128
49.22	6.547
49.44	1.549
49.66	4.354
49.88	4.504
50.1	2.643
50.32	4.742
50.54	6.926
50.76	7.135
50.98	5.222
51.2	9.958
51.42	3.914
51.64	1.994
51.86	15.01
52.08	4.625
52.3	14.517
52.52	15.574
52.74	1.029
52.96	4.82
53.18	8.858
53.4	32.884
53.62	0.917
53.84	6.825
54.06	7.753
54.28	1.537
54.5	9.72
54.72	30.981
54.94	23.346
55.16	28.9
55.38	27.875
55.6	7.525
55.82	2.823
56.04	1.059
56.26	18.921
56.48	35.574
56.7	14.208
56.92	2.64
57.14	6.971
57.36	10.009
57.58	30.505
57.8	29.168
58.02	11.081
58.24	2.303
58.46	18.711
58.68	34.711
58.9	1.081
59.12	1.346
59.34	16.877
59.56	60.311
59.78	9.956
60	5.966
60.22	0.465
60.44	5.849
60.66	5.238
60.88	4.917
61.1	5.383
61.32	5.749
61.54	7.828
61.76	12.749
61.98	1.053
62.2	5.995
62.42	7.609
62.64	5.552
62.86	14.472
63.08	8.571
63.3	3.662
63.52	4.508
63.74	3.807
63.96	12.696
64.18	8.627
64.4	6.365
64.62	4.177
64.84	0.963
65.06	10.825
65.28	2.663
65.5	11.285
65.72	3.775
65.94	0.437
66.16	6.761
66.38	5.534
66.6	8.777
66.82	17.117
67.04	13.904
67.26	7.6
67.48	3.613
67.7	0.497
67.92	3.099
68.14	7.743
68.36	8.428
68.58	1.319
68.8	0.371
69.02	15.451
69.24	2.811
69.46	26.95
69.68	6.029
69.9	4.109
70.12	22.02
70.34	26.528
70.56	6.592
70.78	8.681
71	37.44
71.22	19.075
71.44	10.962
71.66	5.598
71.88	2.97
72.1	6.559
72.32	7.895
72.54	9.08
72.76	15.238
72.98	6.693
73.2	2.879
73.42	3.61
73.64	9.011
73.86	5.531
74.08	8.201
74.3	3.829
74.52	0.583
74.74	9.553
74.96	0.177
75.18	17.273
75.4	5.212
75.62	8.274
75.84	0.339
76.06	9.469
76.28	7.497
76.5	2.518
76.72	0.384
76.94	1.311
77.16	10.978
77.38	23.347
77.6	7.154
77.82	13.106
78.04	1.944
78.26	4.411
78.48	2.432
78.7	8.221
78.92	9.027
79.14	8.833
79.36	40.582
79.58	17.594
79.8	17.067
80.02	10.242
80.24	18.624
80.46	1.074
80.68	2.215
80.9	8.437
81.12	6.798
81.34	9.223
81.56	4.468
81.78	8.813
82	17.805
82.22	7.028
82.44	7.831
82.66	5.014
82.88	8.274
83.1	12.469
83.32	1.566
83.54	1.506
83.76	3.455
83.98	17.484
84.2	1.906
84.42	1.955
84.64	21.004
84.86	12.937
85.08	5.689
85.3	4.345
85.52	8.847
85.74	0.101
85.96	3.732
86.18	11.475
86.4	6.505
86.62	3.319
86.84	0.879
87.06	3.565
87.28	6.455
87.5	11.396
87.72	2.278
87.94	5.556
88.16	1.486
88.38	20.519
88.6	14.533
88.82	0.281
89.04	6.519
89.26	5.704
89.48	17.689
89.7	3.956
89.92	2.647
