Measurement: Powder, Xray Data XY Processed
Mineral: Mimetite
Rruff sample: R040123
Ideal chemistry: Pb^2+^_5_(As^5+^O_4_)_3_Cl
Locality: San Pedro Corralitos, Chihuahua, Mexico
Source: University of Arizona Mineral Museum
Description: Yellow botryoidal group
Diffraction sample description: Powder
Measured chemistry: Pb_5.00_((As_0.96_P_0.04_)O_4_)_3_Cl_1.00_
Cell parameters: a: 10.2302(4) b: 10.2302(4) c: 7.415(2) alpha: 90. beta: 90. gamma: 120. volume: 672.0(1) crystal system: hexagonal
x	intensity
5	0
5.22	6.53905
5.44	11.3268
5.66	1.7461
5.88	6.45631
6.1	1.84855
6.32	12.5713
6.54	7.02706
6.76	18.5631
6.98	5.03158
7.2	8.52655
7.42	1.10877
7.64	1.51529
7.86	0.129382
8.08	6.15905
8.3	0.520435
8.52	6.36852
8.74	4.44217
8.96	8.31405
9.18	15.1096
9.4	8.20612
9.62	5.15921
9.84	2.15943
10.06	18.4106
10.28	12.6765
10.5	8.78686
10.72	1.84985
10.94	5.90657
11.16	7.04868
11.38	4.42534
11.6	4.48802
11.82	17.5006
12.04	2.53215
12.26	6.7087
12.48	2.4155
12.7	5.32131
12.92	7.23453
13.14	4.23989
13.36	12.2211
13.58	4.28201
13.8	0.012157
14.02	1.02801
14.24	8.14566
14.46	8.35705
14.68	10.2313
14.9	8.23964
15.12	5.78011
15.34	1.95166
15.56	5.8502
15.78	3.83609
16	2.89116
16.22	6.92389
16.44	1.98265
16.66	5.02692
16.88	9.79889
17.1	4.66073
17.32	11.5836
17.54	4.01361
17.76	2.82559
17.98	5.78917
18.2	5.53181
18.42	12.483
18.64	10.2934
18.86	4.02483
19.08	4.7082
19.3	6.76517
19.52	1.75769
19.74	2.58869
19.96	7.33766
20.18	21.2535
20.4	0.001711
20.62	4.94091
20.84	8.91079
21.06	25.9003
21.28	29.1609
21.5	2.10408
21.72	3.48155
21.94	8.26547
22.16	4.38025
22.38	0.60769
22.6	2.416
22.82	6.39964
23.04	3.27061
23.26	6.23245
23.48	4.22947
23.7	6.60708
23.92	26.3057
24.14	23.49
24.36	7.66163
24.58	12.3937
24.8	10.3516
25.02	12.1094
25.24	6.88896
25.46	0.392186
25.68	1.35589
25.9	11.9869
26.12	47.2533
26.34	15.1618
26.56	29.826
26.78	45.382
27	6.60963
27.22	3.27029
27.44	2.43504
27.66	5.24406
27.88	9.99122
28.1	3.56061
28.32	2.01011
28.54	3.28795
28.76	16.5361
28.98	7.6801
29.2	119.219
29.42	228.424
29.64	85.366
29.86	235.765
30.08	62.3049
30.3	168.527
30.52	10.9721
30.74	1.79696
30.96	6.53011
31.18	0.275114
31.4	6.49875
31.62	10.1571
31.84	3.92752
32.06	6.97184
32.28	2.82948
32.5	10.0008
32.72	7.57913
32.94	2.8702
33.16	7.87145
33.38	0.730994
33.6	10.8762
33.82	1.98707
34.04	1.03568
34.26	14.1844
34.48	1.17812
34.7	10.372
34.92	7.21496
35.14	3.90825
35.36	0.105276
35.58	6.80673
35.8	8.66298
36.02	5.76827
36.24	14.9448
36.46	7.34368
36.68	8.11906
36.9	13.2728
37.12	11.3461
37.34	2.49214
37.56	6.52621
37.78	5.43089
38	6.2688
38.22	1.62955
38.44	12.4837
38.66	20.3094
38.88	11.8763
39.1	7.72257
39.32	5.47121
39.54	0.072248
39.76	0.232925
39.98	8.59206
40.2	4.74839
40.42	6.10809
40.64	18.6789
40.86	22.5393
41.08	3.32104
41.3	2.51248
41.52	2.48015
41.74	7.33555
41.96	7.19081
42.18	3.03133
42.4	4.71772
42.62	7.78994
42.84	38.6924
43.06	73.3569
43.28	19.0175
43.5	5.74687
43.72	1.48863
43.94	5.95018
44.16	29.8062
44.38	22.2418
44.6	24.6605
44.82	5.83619
45.04	3.81698
45.26	3.57177
45.48	36.8245
45.7	51.3633
45.92	44.7098
46.14	20.6409
46.36	58.1151
46.58	26.0629
46.8	10.0201
47.02	62.0782
47.24	10.2775
47.46	0.958513
47.68	27.7788
47.9	74.3458
48.12	32.7122
48.34	7.42335
48.56	1.15566
48.78	1.43247
49	11.0183
49.22	22.0675
49.44	24.9677
49.66	18.5039
49.88	4.96923
50.1	0.351455
50.32	1.71531
50.54	4.03582
50.76	13.3046
50.98	0.885915
51.2	1.34667
51.42	6.10047
51.64	2.79008
51.86	1.48411
52.08	0.488689
52.3	11.9595
52.52	6.80737
52.74	9.85884
52.96	11.0866
53.18	4.89848
53.4	13.7986
53.62	10.7331
53.84	9.64912
54.06	0.359145
54.28	1.57069
54.5	5.30813
54.72	2.41392
54.94	19.689
55.16	8.95536
55.38	23.4397
55.6	17.1148
55.82	2.33494
56.04	4.08283
56.26	5.92045
56.48	9.38531
56.7	9.7993
56.92	16.2276
57.14	11.067
57.36	1.57693
57.58	15.2089
57.8	30.7172
58.02	8.35745
58.24	11.1793
58.46	4.9195
58.68	19.5765
58.9	31.6845
59.12	30.3728
59.34	39.8543
59.56	31.7559
59.78	39.0667
60	17.042
60.22	1.9753
60.44	0.158432
60.66	4.87344
60.88	8.67696
61.1	1.64064
61.32	0.551657
61.54	6.25734
61.76	6.15015
61.98	0.612066
62.2	10.7203
62.42	9.93449
62.64	6.73131
62.86	7.57173
63.08	5.58675
63.3	2.46751
63.52	3.4426
63.74	6.48595
63.96	7.64357
64.18	3.97741
64.4	4.74337
64.62	2.3447
64.84	1.84095
65.06	11.9103
65.28	11.2096
65.5	9.78576
65.72	12.3512
65.94	2.70109
66.16	0.798173
66.38	11.1789
66.6	6.32754
66.82	5.33439
67.04	19.4507
67.26	7.94159
67.48	9.31818
67.7	0.474896
67.92	3.32744
68.14	2.96726
68.36	10.2243
68.58	1.4766
68.8	6.93437
69.02	4.20071
69.24	11.0592
69.46	17.9151
69.68	5.64342
69.9	10.5407
70.12	11.1032
70.34	21.3456
70.56	13.0539
70.78	1.58786
71	13.6173
71.22	19.8636
71.44	25.1047
71.66	1.51912
71.88	4.83694
72.1	0.163239
72.32	0.472585
72.54	0.394129
72.76	6.20984
72.98	9.19177
73.2	2.84389
73.42	1.5792
73.64	0.792264
73.86	8.949
74.08	25.7022
74.3	4.31051
74.52	9.93911
74.74	9.03984
74.96	12.3608
75.18	9.4308
75.4	3.26756
75.62	3.23884
75.84	4.89172
76.06	1.22585
76.28	5.11412
76.5	8.84017
76.72	4.54108
76.94	21.4942
77.16	3.78316
77.38	8.34968
77.6	10.3956
77.82	5.896
78.04	5.89708
78.26	12.8118
78.48	12.4418
78.7	4.28439
78.92	5.94226
79.14	1.26372
79.36	4.43142
79.58	5.10054
79.8	14.4431
80.02	21.8339
80.24	20.4771
80.46	19.8186
80.68	11.5711
80.9	7.80594
81.12	6.14887
81.34	1.61009
81.56	4.19525
81.78	4.78221
82	5.24182
82.22	9.83763
82.44	15.451
82.66	11.9418
82.88	0.776449
83.1	12.2043
83.32	4.7318
83.54	7.16377
83.76	4.39344
83.98	4.52037
84.2	3.64957
84.42	7.78609
84.64	4.67648
84.86	8.83399
85.08	10.549
85.3	4.35245
85.52	9.62992
85.74	4.95089
85.96	5.51618
86.18	1.47761
86.4	9.03064
86.62	5.5042
86.84	14.9967
87.06	9.53744
87.28	6.77643
87.5	2.50917
87.72	5.22392
87.94	7.026
88.16	10.0506
88.38	11.3208
88.6	21.4382
88.82	13.399
89.04	9.76631
89.26	9.18972
89.48	6.84639
89.7	4.49216
89.92	17.7682
