Measurement: Powder, Xray Data XY Processed
Mineral: Mimetite
Rruff sample: R050527
Ideal chemistry: Pb^2+^_5_(As^5+^O_4_)_3_Cl
Locality: Tsumeb mine, Tsumeb, Otavi District, Oshikoto, Namibia
Source: University of Arizona Mineral Museum
Description: Yellow hexagonal prisms, monoclinic polytype
Diffraction sample description: Powder, cell parameters are from single crystal
Measured chemistry: Pb_5.00_(As_1.00_O_4_)_3_Cl_1.00_
Cell parameters: a: 10.2425(9) b: 20.491(2) c: 7.4496(7) alpha: 90 beta: 90 gamma: 119.942(5) volume: 1354.8(2) crystal system: monoclinic
x	intensity
5	0
5.22	5.11119
5.44	11.2663
5.66	5.27477
5.88	6.53848
6.1	13.8963
6.32	7.54687
6.54	13.0378
6.76	20.6823
6.98	3.08536
7.2	5.54392
7.42	5.89018
7.64	1.17059
7.86	1.4543
8.08	8.5366
8.3	1.55352
8.52	8.38434
8.74	6.08367
8.96	3.55838
9.18	8.51285
9.4	3.15286
9.62	0.05049
9.84	2.9737
10.06	4.97073
10.28	8.9891
10.5	5.29703
10.72	7.4838
10.94	1.62489
11.16	5.86359
11.38	8.13168
11.6	5.20184
11.82	2.32302
12.04	2.42382
12.26	0.510387
12.48	6.58912
12.7	1.45645
12.92	4.46841
13.14	5.51304
13.36	1.73276
13.58	4.72623
13.8	1.73247
14.02	0.589382
14.24	6.68275
14.46	1.66502
14.68	6.58381
14.9	8.6189
15.12	6.4955
15.34	13.3856
15.56	4.38181
15.78	0.135968
16	8.12998
16.22	2.94483
16.44	1.95448
16.66	2.74401
16.88	0.177735
17.1	2.89589
17.32	15.7657
17.54	9.72765
17.76	10.74
17.98	3.72066
18.2	1.35385
18.42	0.073634
18.64	5.27641
18.86	4.14663
19.08	8.1925
19.3	7.96426
19.52	1.80472
19.74	3.65756
19.96	15.4134
20.18	14.1372
20.4	6.97718
20.62	4.74917
20.84	4.2374
21.06	75.9301
21.28	6.20387
21.5	1.27992
21.72	0.482145
21.94	2.46043
22.16	1.90663
22.38	1.29067
22.6	0.60721
22.82	0.367774
23.04	5.41585
23.26	12.3884
23.48	8.51407
23.7	3.17687
23.92	44.0009
24.14	13.0067
24.36	0.933434
24.58	11.6634
24.8	4.1771
25.02	5.94478
25.24	5.70342
25.46	10.4875
25.68	0.275675
25.9	27.0267
26.12	36.0102
26.34	22.5963
26.56	112.906
26.78	16.4128
27	7.41713
27.22	5.87939
27.44	2.59841
27.66	6.26607
27.88	2.79029
28.1	0.169961
28.32	11.4097
28.54	1.55998
28.76	6.88703
28.98	19.7028
29.2	381.253
29.42	61.7451
29.64	259.593
29.86	72.0418
30.08	20.5314
30.3	155.953
30.52	20.7239
30.74	4.19143
30.96	1.67277
31.18	0.552402
31.4	8.38496
31.62	9.29974
31.84	9.79867
32.06	2.60541
32.28	6.70169
32.5	0.246598
32.72	3.86718
32.94	4.09622
33.16	1.28279
33.38	20.4067
33.6	4.53372
33.82	3.50654
34.04	6.34767
34.26	10.5952
34.48	1.77769
34.7	10.0403
34.92	4.96208
35.14	11.9741
35.36	1.90033
35.58	2.66752
35.8	2.79308
36.02	4.62359
36.24	5.61835
36.46	9.52955
36.68	7.5581
36.9	3.79717
37.12	5.58442
37.34	1.58021
37.56	4.62193
37.78	1.70246
38	3.74077
38.22	4.55714
38.44	7.84127
38.66	9.84634
38.88	13.8417
39.1	9.80777
39.32	2.34616
39.54	6.26765
39.76	2.1686
39.98	6.97134
40.2	7.01295
40.42	13.8886
40.64	23.9804
40.86	18.0314
41.08	1.19559
41.3	7.14695
41.52	9.02199
41.74	5.99998
41.96	0.060012
42.18	0.84765
42.4	6.00652
42.62	12.1873
42.84	118.855
43.06	35.5888
43.28	4.94853
43.5	2.64668
43.72	9.56945
43.94	9.30702
44.16	32.4257
44.38	4.87966
44.6	20.303
44.82	0.77421
45.04	4.29529
45.26	2.31637
45.48	84.1087
45.7	26.5181
45.92	17.8593
46.14	19.3002
46.36	56.2592
46.58	13.7125
46.8	10.8024
47.02	49.2298
47.24	1.11863
47.46	1.83878
47.68	57.4204
47.9	32.9549
48.12	4.6421
48.34	2.31253
48.56	8.42264
48.78	5.07348
49	18.8347
49.22	6.71953
49.44	12.9695
49.66	0.759006
49.88	10.4664
50.1	8.71628
50.32	3.92653
50.54	4.03684
50.76	5.33425
50.98	6.42232
51.2	9.31777
51.42	11.7681
51.64	2.68221
51.86	15.4402
52.08	0.398758
52.3	1.95619
52.52	12.8339
52.74	5.75045
52.96	0.918866
53.18	3.27808
53.4	19.0246
53.62	12.0214
53.84	8.11699
54.06	2.9865
54.28	7.80204
54.5	7.9199
54.72	23.0829
54.94	8.26523
55.16	23.1749
55.38	6.6644
55.6	5.97994
55.82	5.98029
56.04	0.482157
56.26	11.5134
56.48	19.1927
56.7	19.8849
56.92	3.37173
57.14	1.71946
57.36	9.48841
57.58	40.0289
57.8	12.6596
58.02	7.43931
58.24	5.84832
58.46	1.22696
58.68	30.9171
58.9	26.5272
59.12	7.48294
59.34	28.9928
59.56	52.1665
59.78	13.784
60	2.76379
60.22	0.728047
60.44	14.2069
60.66	1.79347
60.88	10.2982
61.1	0.023761
61.32	9.70355
61.54	7.21852
61.76	9.39222
61.98	7.46419
62.2	4.34805
62.42	0.076902
62.64	9.6718
62.86	5.96391
63.08	5.94664
63.3	9.89588
63.52	4.6001
63.74	2.63273
63.96	7.69785
64.18	5.45363
64.4	0.551284
64.62	1.29969
64.84	4.30292
65.06	2.20015
65.28	3.70724
65.5	0.603465
65.72	13.5004
65.94	2.32337
66.16	2.14633
66.38	5.17706
66.6	8.63114
66.82	3.74083
67.04	11.6683
67.26	5.22422
67.48	8.959
67.7	2.93096
67.92	1.31811
68.14	14.6893
68.36	19.1541
68.58	4.85915
68.8	10.229
69.02	18.0303
69.24	17.3172
69.46	9.0414
69.68	0.079947
69.9	3.80005
70.12	26.7672
70.34	5.34551
70.56	7.04083
70.78	7.82366
71	26.5663
71.22	9.51924
71.44	2.32664
71.66	3.09131
71.88	4.82941
72.1	1.51788
72.32	2.13181
72.54	8.45105
72.76	4.45409
72.98	5.35382
73.2	5.10978
73.42	5.84825
73.64	3.50906
73.86	4.46936
74.08	12.3411
74.3	7.20938
74.52	9.30682
74.74	9.25312
74.96	9.46997
75.18	6.43302
75.4	9.39717
75.62	9.3566
75.84	0.640755
76.06	1.35824
76.28	3.21075
76.5	8.12359
76.72	12.9132
76.94	14.6141
77.16	8.57703
77.38	13.9177
77.6	2.00203
77.82	8.3196
78.04	6.21773
78.26	8.16754
78.48	2.99805
78.7	7.90604
78.92	1.78364
79.14	3.63437
79.36	0.304434
79.58	21.5142
79.8	13.7789
80.02	24.9124
80.24	5.92647
80.46	8.00135
80.68	0.063904
80.9	4.3754
81.12	2.39066
81.34	5.84185
81.56	7.22025
81.78	3.46131
82	1.18333
82.22	9.02997
82.44	6.04571
82.66	2.89632
82.88	5.05964
83.1	5.53177
83.32	10.4404
83.54	4.50151
83.76	0.683703
83.98	1.45787
84.2	2.56042
84.42	5.66668
84.64	1.65991
84.86	4.61546
85.08	2.53104
85.3	2.69949
85.52	2.36689
85.74	6.22081
85.96	5.11297
86.18	0.870805
86.4	5.28967
86.62	0.449877
86.84	4.05457
87.06	2.8488
87.28	16.6998
87.5	2.59532
87.72	4.11421
87.94	0.212023
88.16	1.7278
88.38	11.2818
88.6	10.4437
88.82	5.31277
89.04	0.525938
89.26	0.699371
89.48	4.13254
89.7	1.97901
89.92	1.98836
