Measurement: Powder, Xray Data XY Processed
Mineral: Mimetite
Rruff sample: R060920
Ideal chemistry: Pb^2+^_5_(As^5+^O_4_)_3_Cl
Locality: Tsumeb mine, Tsumeb, Otavi District, Oshikoto, Namibia
Source: Marcus Origlieri
Description: Yellow to brownish hexagonal prism, monoclinic polytype
Diffraction sample description: Powder, cell parameters are from single crystal
Cell parameters: a: 10.2596(8) b: 20.527(2) c: 7.4588(5) alpha: 90 beta: 90 gamma: 119.969(4) volume: 1360.7(3) crystal system: monoclinic
x	intensity
5	0
5.22	2.69767
5.44	2.07029
5.66	2.71388
5.88	4.64916
6.1	7.69649
6.32	13.0124
6.54	13.2295
6.76	8.63325
6.98	6.82766
7.2	5.97112
7.42	0.828292
7.64	0.674105
7.86	4.32391
8.08	0.368217
8.3	6.26208
8.52	0.030176
8.74	2.52411
8.96	4.30896
9.18	0.768429
9.4	8.57226
9.62	6.77747
9.84	9.65988
10.06	6.50885
10.28	0.184059
10.5	4.80809
10.72	4.89215
10.94	3.93302
11.16	6.0013
11.38	7.22405
11.6	9.37018
11.82	0.424781
12.04	0.226932
12.26	1.2966
12.48	1.55239
12.7	2.42406
12.92	4.54258
13.14	4.60236
13.36	1.7475
13.58	9.88354
13.8	1.78793
14.02	0.833665
14.24	1.90602
14.46	0.899844
14.68	1.86553
14.9	0.615419
15.12	1.5693
15.34	6.48325
15.56	8.54191
15.78	4.34896
16	2.0918
16.22	2.99756
16.44	5.77165
16.66	0.464933
16.88	3.35071
17.1	8.28757
17.32	20.1894
17.54	13.138
17.76	1.48782
17.98	4.36924
18.2	4.34091
18.42	6.50904
18.64	12.6585
18.86	4.62698
19.08	5.56754
19.3	5.56278
19.52	4.76293
19.74	2.78947
19.96	26.5891
20.18	14.0742
20.4	3.02568
20.62	7.07627
20.84	14.0118
21.06	111.028
21.28	9.42232
21.5	0.515039
21.72	8.7155
21.94	4.74575
22.16	11.7029
22.38	8.76063
22.6	5.70401
22.82	2.52984
23.04	10.2149
23.26	6.11355
23.48	11.8885
23.7	4.3901
23.92	38.0675
24.14	8.13508
24.36	8.00119
24.58	8.85849
24.8	2.58656
25.02	13.3887
25.24	5.25062
25.46	2.85985
25.68	2.95288
25.9	44.8159
26.12	22.7036
26.34	20.7002
26.56	110.899
26.78	14.9249
27	4.34154
27.22	2.31631
27.44	1.33863
27.66	3.16237
27.88	3.68248
28.1	2.09411
28.32	3.2901
28.54	3.46073
28.76	9.70249
28.98	7.49162
29.2	508.276
29.42	25.2939
29.64	387.618
29.86	37.7345
30.08	21.7614
30.3	146.108
30.52	11.8946
30.74	7.98066
30.96	3.8659
31.18	6.0658
31.4	2.87868
31.62	4.89462
31.84	2.00785
32.06	1.98062
32.28	8.13509
32.5	6.63046
32.72	3.8755
32.94	1.02217
33.16	6.25498
33.38	8.31624
33.6	0.90651
33.82	2.13231
34.04	3.94822
34.26	1.56005
34.48	3.54028
34.7	1.73164
34.92	3.63602
35.14	2.75901
35.36	1.97535
35.58	4.63298
35.8	2.22529
36.02	4.7801
36.24	4.8748
36.46	3.40931
36.68	4.4904
36.9	0.708792
37.12	8.65224
37.34	9.6657
37.56	6.33573
37.78	6.26254
38	7.14781
38.22	8.04918
38.44	11.9317
38.66	13.8831
38.88	22.4537
39.1	4.34985
39.32	7.01816
39.54	7.80904
39.76	6.74498
39.98	3.05306
40.2	4.27595
40.42	13.3441
40.64	20.3704
40.86	2.47768
41.08	3.16314
41.3	7.12668
41.52	2.98019
41.74	6.79754
41.96	5.57997
42.18	7.33836
42.4	11.2285
42.62	19.8467
42.84	146.647
43.06	27.3362
43.28	4.92721
43.5	6.70268
43.72	0.312572
43.94	11.2212
44.16	23.8643
44.38	4.50781
44.6	8.13386
44.82	5.72966
45.04	1.69008
45.26	7.95026
45.48	59.5808
45.7	11.1857
45.92	7.80363
46.14	29.0763
46.36	40.4766
46.58	6.49526
46.8	20.5939
47.02	52.9262
47.24	8.43538
47.46	10.4119
47.68	97.9345
47.9	25.3813
48.12	4.96117
48.34	1.40466
48.56	1.03774
48.78	14.8349
49	33.4583
49.22	7.984
49.44	1.296
49.66	2.58796
49.88	0.655125
50.1	3.52941
50.32	1.84526
50.54	0.125488
50.76	5.10774
50.98	8.10111
51.2	8.65452
51.42	12.4216
51.64	6.30818
51.86	1.28024
52.08	4.09132
52.3	11.995
52.52	9.73086
52.74	2.97415
52.96	2.17385
53.18	1.91237
53.4	15.2186
53.62	9.1699
53.84	13.1453
54.06	2.99701
54.28	0.765301
54.5	0.648211
54.72	26.6154
54.94	8.66617
55.16	31.2546
55.38	9.88227
55.6	7.52472
55.82	5.208
56.04	0.754951
56.26	11.8653
56.48	31.6856
56.7	9.41991
56.92	1.28836
57.14	8.2537
57.36	10.7888
57.58	13.4971
57.8	31.4253
58.02	1.28
58.24	2.02577
58.46	28.3098
58.68	37.0525
58.9	9.25406
59.12	9.15094
59.34	15.5506
59.56	32.6996
59.78	11.2568
60	1.83016
60.22	7.79216
60.44	9.62224
60.66	3.20957
60.88	3.65124
61.1	0.262737
61.32	1.76584
61.54	4.0714
61.76	2.21779
61.98	7.39669
62.2	2.45714
62.42	5.44341
62.64	10.4136
62.86	0.416541
63.08	4.33984
63.3	4.40903
63.52	3.51985
63.74	6.20535
63.96	5.12354
64.18	5.19077
64.4	0.919987
64.62	1.87655
64.84	7.93814
65.06	6.20421
65.28	0.879321
65.5	7.80941
65.72	8.46084
65.94	7.04331
66.16	0.836647
66.38	9.57127
66.6	6.42341
66.82	4.08899
67.04	8.77248
67.26	8.22653
67.48	5.6064
67.7	1.22406
67.92	3.83522
68.14	18.2023
68.36	15.68
68.58	5.57563
68.8	8.19706
69.02	10.5603
69.24	13.4167
69.46	5.37322
69.68	5.41957
69.9	0.380619
70.12	27.7586
70.34	12.5516
70.56	0.738111
70.78	0.125528
71	21.8651
71.22	5.03471
71.44	1.80705
71.66	2.64909
71.88	6.26295
72.1	2.92641
72.32	1.49611
72.54	2.61221
72.76	12.3821
72.98	7.31487
73.2	3.97269
73.42	4.67341
73.64	6.08063
73.86	8.96781
74.08	6.92968
74.3	3.71477
74.52	7.42013
74.74	1.0922
74.96	7.96309
75.18	2.94266
75.4	7.73706
75.62	3.58579
75.84	5.34146
76.06	7.28867
76.28	10.8062
76.5	9.64904
76.72	6.66403
76.94	9.75574
77.16	1.93555
77.38	11.5712
77.6	14.5943
77.82	8.8084
78.04	4.78629
78.26	1.72407
78.48	0.323447
78.7	0.469272
78.92	7.32777
79.14	1.16691
79.36	10.7571
79.58	16.6617
79.8	11.0054
80.02	11.8398
80.24	3.08617
80.46	3.44843
80.68	0.620926
80.9	5.87186
81.12	0.259655
81.34	5.66613
81.56	9.13225
81.78	5.53849
82	4.80519
82.22	7.02991
82.44	10.2855
82.66	6.29563
82.88	3.31904
83.1	0.53927
83.32	12.7364
83.54	5.87007
83.76	1.09441
83.98	2.97827
84.2	6.92678
84.42	4.15644
84.64	10.2051
84.86	7.07196
85.08	6.89405
85.3	4.65421
85.52	3.15609
85.74	4.81233
85.96	4.45929
86.18	4.05414
86.4	0.367339
86.62	5.21639
86.84	0.326929
87.06	0.316441
87.28	6.1052
87.5	2.83347
87.72	3.89793
87.94	11.2923
88.16	5.45853
88.38	20.6283
88.6	6.87933
88.82	4.90772
89.04	4.2694
89.26	3.75024
89.48	4.15012
89.7	9.46159
89.92	8.24167
