Measurement: Powder, Xray Data XY Processed
Mineral: Minium
Rruff sample: R050426
Ideal chemistry: Pb^2+^_2_Pb^4+^O_4_
Locality: El Chichi mine, Culiacan, Sinalog, Mexico
Source: University of Arizona Mineral Museum
Description: Orange earthy coating
Diffraction sample description: Powder
Measured chemistry: Pb^2+^_2.00_Pb^4+^_1.00_O_4_
Cell parameters: a: 8.8120(3) b: 8.8120(3) c: 6.5645(2) alpha: 90 beta: 90 gamma: 90 volume: 509.74(3) crystal system: tetragonal
x	intensity
5	0
5.22	0.536147
5.44	12.0157
5.66	13.7268
5.88	6.79179
6.1	8.99332
6.32	12.397
6.54	6.55961
6.76	4.33698
6.98	9.89748
7.2	6.62892
7.42	7.32723
7.64	1.70574
7.86	8.2512
8.08	12.5839
8.3	4.97142
8.52	7.12211
8.74	4.32442
8.96	4.2131
9.18	0.884223
9.4	7.72205
9.62	5.31804
9.84	5.06693
10.06	11.2855
10.28	1.49125
10.5	3.60875
10.72	13.7714
10.94	8.02206
11.16	10.3088
11.38	5.07084
11.6	15.066
11.82	16.1188
12.04	3.25637
12.26	3.3044
12.48	2.04316
12.7	11.5963
12.92	13.445
13.14	8.06627
13.36	1.08461
13.58	3.49622
13.8	5.43231
14.02	6.44929
14.24	125.691
14.46	11.6218
14.68	4.64341
14.9	1.13679
15.12	6.06727
15.34	3.13575
15.56	6.49109
15.78	7.71953
16	11.7206
16.22	0.734524
16.44	7.1261
16.66	3.98376
16.88	2.96136
17.1	5.81939
17.32	2.86276
17.54	4.77042
17.76	2.01028
17.98	15.275
18.2	6.29366
18.42	6.33844
18.64	8.49635
18.86	5.60546
19.08	6.43422
19.3	17.2732
19.52	8.11668
19.74	11.7792
19.96	7.46641
20.18	11.9004
20.4	5.60079
20.62	8.44809
20.84	9.12932
21.06	6.74349
21.28	5.56703
21.5	5.8343
21.72	5.80749
21.94	7.95418
22.16	7.16292
22.38	4.56082
22.6	3.36886
22.82	5.64161
23.04	2.18864
23.26	2.96018
23.48	1.63939
23.7	6.02145
23.92	7.15451
24.14	5.10717
24.36	8.19479
24.58	9.6578
24.8	18.8207
25.02	11.1851
25.24	1.21881
25.46	8.70211
25.68	5.1153
25.9	27.8925
26.12	74.2156
26.34	368.388
26.56	186.547
26.78	50.2376
27	32.7941
27.22	40.2888
27.44	10.2627
27.66	7.43612
27.88	0.711227
28.1	6.07028
28.32	12.7408
28.54	25.7023
28.76	55.679
28.98	16.7448
29.2	5.38695
29.42	19.7577
29.64	1.09131
29.86	5.84375
30.08	13.4711
30.3	2.84578
30.52	14.127
30.74	206.588
30.96	42.0083
31.18	6.35795
31.4	15.0118
31.62	16.5135
31.84	48.5016
32.06	99.8086
32.28	99.7592
32.5	28.8129
32.72	9.00742
32.94	12.4486
33.16	7.0532
33.38	12.5535
33.6	11.8911
33.82	32.6934
34.04	112.257
34.26	33.2616
34.48	11.7157
34.7	9.27458
34.92	0.813349
35.14	5.04769
35.36	4.99932
35.58	9.59258
35.8	0.766472
36.02	6.89692
36.24	11.3321
36.46	12.5332
36.68	17.6048
36.9	12.2496
37.12	7.52201
37.34	0.872985
37.56	0.847782
37.78	3.32121
38	10.2163
38.22	10.0136
38.44	3.73135
38.66	3.0645
38.88	0.571457
39.1	3.42754
39.32	21.2722
39.54	8.86813
39.76	19.4611
39.98	31.1505
40.2	1.85554
40.42	3.25957
40.64	1.68636
40.86	8.15738
41.08	5.50988
41.3	4.7509
41.52	4.96278
41.74	10.2604
41.96	6.51741
42.18	2.8073
42.4	3.64958
42.62	8.29289
42.84	8.29443
43.06	6.59567
43.28	11.804
43.5	30.1183
43.72	12.5086
43.94	8.44207
44.16	18.2973
44.38	12.5612
44.6	27.7835
44.82	14.1753
45.04	11.342
45.26	3.33218
45.48	1.14701
45.7	19.8293
45.92	20.6709
46.14	16.3376
46.36	17.5566
46.58	10.574
46.8	6.41502
47.02	11.516
47.24	25.7396
47.46	59.4456
47.68	47.8359
47.9	10.2646
48.12	2.3182
48.34	5.39012
48.56	5.55961
48.78	4.6274
49	5.49239
49.22	15.3336
49.44	17.921
49.66	25.7691
49.88	35.7852
50.1	36.5121
50.32	7.73427
50.54	13.5341
50.76	1.52854
50.98	4.56934
51.2	6.68469
51.42	4.92981
51.64	14.2777
51.86	18.7823
52.08	125.933
52.3	54.5418
52.52	14.1461
52.74	6.4434
52.96	13.9315
53.18	7.59587
53.4	17.5077
53.62	6.81765
53.84	3.47365
54.06	15.1495
54.28	16.8235
54.5	2.92203
54.72	15.6718
54.94	3.39118
55.16	9.33584
55.38	1.18257
55.6	7.20713
55.82	14.8672
56.04	26.3892
56.26	12.9067
56.48	10.2688
56.7	2.37503
56.92	2.82203
57.14	4.2555
57.36	14.9191
57.58	7.40459
57.8	22.1985
58.02	20.7971
58.24	17.8399
58.46	20.1666
58.68	0.07395
58.9	1.87816
59.12	18.9961
59.34	22.8971
59.56	21.961
59.78	2.95249
60	7.23061
60.22	6.52531
60.44	11.1132
60.66	9.72685
60.88	5.04786
61.1	8.97237
61.32	5.30483
61.54	7.80433
61.76	5.44498
61.98	5.99252
62.2	1.5068
62.42	5.52487
62.64	9.63642
62.86	15.4335
63.08	6.4763
63.3	5.62685
63.52	14.5453
63.74	10.1786
63.96	8.59367
64.18	4.82849
64.4	4.85144
64.62	2.82953
64.84	6.97275
65.06	4.16939
65.28	2.63899
65.5	4.52176
65.72	12.8017
65.94	25.8885
66.16	23.3952
66.38	14.4432
66.6	8.46413
66.82	7.78024
67.04	2.04943
67.26	10.3103
67.48	6.54775
67.7	0.345715
67.92	6.90222
68.14	10.6583
68.36	14.4153
68.58	10.6423
68.8	4.50429
69.02	5.44963
69.24	7.27981
69.46	3.107
69.68	9.10438
69.9	14.33
70.12	4.55835
70.34	4.04369
70.56	8.29346
70.78	4.21774
71	2.14081
71.22	5.02111
71.44	10.894
71.66	5.06555
71.88	20.1572
72.1	4.30801
72.32	6.71593
72.54	4.15961
72.76	7.16743
72.98	1.19304
73.2	5.19662
73.42	3.70947
73.64	12.7396
73.86	9.90976
74.08	2.51727
74.3	5.11013
74.52	7.69963
74.74	7.3898
74.96	11.7938
75.18	2.68402
75.4	7.62095
75.62	13.6249
75.84	5.56629
76.06	9.85381
76.28	8.32706
76.5	17.7617
76.72	5.41525
76.94	1.02267
77.16	3.45598
77.38	1.09532
77.6	6.54169
77.82	11.8538
78.04	0.275846
78.26	4.44741
78.48	0.476028
78.7	11.03
78.92	6.91348
79.14	2.57866
79.36	3.61466
79.58	16.4644
79.8	2.03196
80.02	15.8747
80.24	15.883
80.46	4.81581
80.68	3.79
80.9	0.676257
81.12	9.8043
81.34	6.9256
81.56	13.555
81.78	5.12564
82	0.457658
82.22	4.88405
82.44	5.24423
82.66	8.23816
82.88	11.5982
83.1	13.4372
83.32	6.00618
83.54	7.3053
83.76	1.00097
83.98	3.25915
84.2	10.8208
84.42	11.9285
84.64	9.37139
84.86	5.82789
85.08	9.34759
85.3	4.87557
85.52	13.5096
85.74	3.11109
85.96	19.4213
86.18	4.51299
86.4	5.43323
86.62	5.17683
86.84	6.44259
87.06	1.50198
87.28	4.77263
87.5	4.97977
87.72	9.24473
87.94	7.40179
88.16	11.5265
88.38	1.97619
88.6	5.64797
88.82	3.93083
89.04	10.498
89.26	3.94315
89.48	7.4885
89.7	11.0901
89.92	7.78364
