Measurement: Powder, Xray Data XY Processed
Mineral: Miserite
Rruff sample: R060095
Ideal chemistry: K_1.5-x_(Ca,Y,REE)_5_[Si_6_O_15_][Si_2_O_7_](OH,F)_2_yH_2_O
Locality: Magnet Cove, Garland County, Arkansas, USA
Source: University of Arizona Mineral Museum
Description: Massive pink fine fibers associated with eudialyte, wollastonite, and orthoclase
Diffraction sample description: Powder, mixed with wollastonite and orthoclase
Measured chemistry: K_1.00_(Ca_5.85_Mn_0.05_Ti_0.05_[box]_0.05_)_Σ=6_Si_8.00_O_22_(F_1.46_(OH)_0.54_)_Σ=2_
Cell parameters: a: 10.0889(4) b: 16.0366(7) c: 7.4465(7) alpha: 96.474(7) beta: 111.100(7) gamma: 76.327(6) volume: 1091.7(1) crystal system: triclinic
x	intensity
5	0
5.22	0.336321
5.44	6.08785
5.66	85.8291
5.88	12.7592
6.1	12.0209
6.32	15.4179
6.54	3.68116
6.76	7.57106
6.98	16.3768
7.2	10.4442
7.42	12.18
7.64	6.85406
7.86	13.5191
8.08	1.61623
8.3	8.1615
8.52	4.65322
8.74	7.95337
8.96	7.86153
9.18	0.00808
9.4	7.00956
9.62	7.86376
9.84	0.829133
10.06	14.061
10.28	2.13386
10.5	8.3674
10.72	3.48608
10.94	11.7262
11.16	0.133393
11.38	12.086
11.6	26.2602
11.82	0.577401
12.04	9.73947
12.26	14.1449
12.48	7.46283
12.7	10.8688
12.92	10.9482
13.14	9.93784
13.36	7.98087
13.58	13.2979
13.8	11.5273
14.02	7.6356
14.24	4.42433
14.46	6.71845
14.68	0.548884
14.9	4.48962
15.12	2.28124
15.34	5.88605
15.56	2.86263
15.78	0.677606
16	1.72278
16.22	3.09065
16.44	10.1614
16.66	7.11647
16.88	9.70034
17.1	25.6586
17.32	8.7408
17.54	4.74494
17.76	13.6626
17.98	11.5979
18.2	12.6813
18.42	0.767211
18.64	8.71792
18.86	11.4761
19.08	20.3733
19.3	24.5809
19.52	7.47799
19.74	2.3485
19.96	12.4169
20.18	13.402
20.4	8.38978
20.62	1.52502
20.84	1.44042
21.06	8.96619
21.28	6.14271
21.5	7.2169
21.72	7.0918
21.94	5.99057
22.16	0.986784
22.38	3.97219
22.6	0.135211
22.82	12.487
23.04	12.7771
23.26	37.0943
23.48	8.73588
23.7	7.22647
23.92	7.37099
24.14	5.37253
24.36	4.23925
24.58	10.017
24.8	4.25038
25.02	2.29593
25.24	5.43775
25.46	28.7852
25.68	17.2298
25.9	41.6967
26.12	24.9625
26.34	14.5235
26.56	13.5454
26.78	28.6834
27	50.6251
27.22	7.28195
27.44	15.0731
27.66	3.0715
27.88	3.70577
28.1	15.4315
28.32	53.4708
28.54	223.896
28.76	60.0193
28.98	64.208
29.2	117.583
29.42	13.4983
29.64	9.35881
29.86	11.0582
30.08	29.7108
30.3	6.91986
30.52	54.2633
30.74	43.5798
30.96	15.7449
31.18	15.1723
31.4	13.3787
31.62	0.294535
31.84	65.4027
32.06	7.36829
32.28	89.9508
32.5	4.2047
32.72	7.69281
32.94	9.81168
33.16	42.2288
33.38	4.87043
33.6	83.7107
33.82	13.4115
34.04	14.5698
34.26	1.14278
34.48	0.890702
34.7	4.18696
34.92	2.78969
35.14	8.19357
35.36	1.61439
35.58	3.92756
35.8	13.2606
36.02	6.39648
36.24	27.4348
36.46	11.7934
36.68	4.56793
36.9	0.723569
37.12	5.85486
37.34	7.44472
37.56	0.347491
37.78	7.0825
38	38.7429
38.22	7.94728
38.44	33.5494
38.66	2.23131
38.88	1.77188
39.1	29.5965
39.32	17.8089
39.54	6.98532
39.76	5.11227
39.98	26.1967
40.2	3.3073
40.42	8.58412
40.64	14.0048
40.86	9.47987
41.08	3.51813
41.3	10.4504
41.52	6.22566
41.74	14.2665
41.96	0.45854
42.18	5.72979
42.4	6.86409
42.62	8.0846
42.84	8.13295
43.06	8.87241
43.28	19.5958
43.5	10.8868
43.72	13.3012
43.94	7.20157
44.16	4.30367
44.38	8.12173
44.6	8.94349
44.82	2.74351
45.04	6.54782
45.26	6.29787
45.48	10.5971
45.7	3.5404
45.92	0.606799
46.14	24.3134
46.36	23.7384
46.58	8.71079
46.8	1.99039
47.02	2.09583
47.24	5.18697
47.46	24.3429
47.68	10.498
47.9	11.9719
48.12	1.05687
48.34	4.93273
48.56	2.84789
48.78	1.94054
49	10.9908
49.22	0.906248
49.44	8.00713
49.66	34.89
49.88	26.6397
50.1	8.80141
50.32	8.55589
50.54	7.42464
50.76	14.4843
50.98	10.4679
51.2	10.5404
51.42	7.79566
51.64	20.2918
51.86	9.31886
52.08	13.516
52.3	12.6695
52.52	6.81818
52.74	7.85117
52.96	3.30256
53.18	21.6236
53.4	7.87522
53.62	11.8454
53.84	3.47651
54.06	3.0958
54.28	10.706
54.5	10.6534
54.72	23.7746
54.94	8.76558
55.16	43.4286
55.38	8.9364
55.6	12.4701
55.82	0.559085
56.04	7.52883
56.26	13.5446
56.48	21.7023
56.7	1.19314
56.92	6.52984
57.14	2.66216
57.36	7.67967
57.58	7.6508
57.8	7.57261
58.02	1.66971
58.24	15.8958
58.46	17.6523
58.68	12.3127
58.9	8.86341
59.12	39.2682
59.34	4.307
59.56	4.89713
59.78	3.70511
60	21.6206
60.22	18.0232
60.44	6.31532
60.66	3.5326
60.88	12.58
61.1	18.0512
61.32	1.01714
61.54	4.31809
61.76	7.60888
61.98	5.00465
62.2	4.30628
62.42	5.56919
62.64	0.353298
62.86	1.31527
63.08	1.46264
63.3	6.89659
63.52	0.948159
63.74	2.51902
63.96	2.80955
64.18	6.85944
64.4	7.63719
64.62	8.65148
64.84	1.40484
65.06	4.73486
65.28	12.8123
65.5	9.81419
65.72	7.67425
65.94	7.58676
66.16	8.52687
66.38	10.5504
66.6	3.98419
66.82	4.08986
67.04	1.26674
67.26	2.50419
67.48	5.68419
67.7	5.25366
67.92	4.8369
68.14	8.81863
68.36	3.26189
68.58	5.17088
68.8	6.16723
69.02	11.0334
69.24	0.894086
69.46	9.00091
69.68	1.06281
69.9	6.13028
70.12	8.25597
70.34	2.35639
70.56	4.13892
70.78	5.257
71	6.37368
71.22	7.54319
71.44	3.89502
71.66	1.9995
71.88	3.21766
72.1	5.27742
72.32	6.31256
72.54	7.30358
72.76	5.44295
72.98	7.45235
73.2	3.31074
73.42	8.60959
73.64	6.60405
73.86	8.3527
74.08	11.234
74.3	11.1688
74.52	0.047532
74.74	11.9379
74.96	6.73079
75.18	5.75537
75.4	3.70182
75.62	12.2095
75.84	9.81607
76.06	11.6318
76.28	11.4686
76.5	5.57729
76.72	2.73938
76.94	2.02343
77.16	8.2454
77.38	11.3569
77.6	3.4225
77.82	9.35573
78.04	6.08406
78.26	4.21599
78.48	9.62124
78.7	5.63552
78.92	1.59055
79.14	8.67265
79.36	0.41115
79.58	5.55707
79.8	14.4527
80.02	12.4096
80.24	10.4274
80.46	3.47798
80.68	4.32013
80.9	1.76802
81.12	11.5842
81.34	5.42622
81.56	3.17843
81.78	9.07244
82	2.521
82.22	14.4903
82.44	11.4492
82.66	8.49982
82.88	4.39146
83.1	5.42533
83.32	5.53359
83.54	11.8149
83.76	4.10242
83.98	2.99554
84.2	1.35982
84.42	6.62558
84.64	9.09382
84.86	0.141925
85.08	8.42682
85.3	0.490713
85.52	0.296856
85.74	7.76256
85.96	8.72054
86.18	6.55934
86.4	6.4164
86.62	2.15658
86.84	10.2878
87.06	7.98879
87.28	4.78101
87.5	0.401181
87.72	8.423
87.94	5.2419
88.16	4.15082
88.38	3.09919
88.6	0.108112
88.82	5.16617
89.04	14.9797
89.26	10.8799
89.48	4.81553
89.7	9.16983
89.92	4.923
