Measurement: Powder, Xray Data XY Processed
Mineral: Monazite-(Ce)
Rruff sample: R040106
Ideal chemistry: CePO_4_
Locality: Angola
Source: University of Arizona Mineral Museum
Description: Brown massive fragment
Diffraction sample description: Powder
Measured chemistry: (Ce_0.41_La_0.17_Nd_0.17_Th_0.14_Ca_0.06_Y_0.04_)(P_0.95_Si_0.05_)O_4_
Cell parameters: a: 6.757(2) b: 6.9840(9) c: 6.481(1) alpha: 90. beta: 103.75(2) gamma: 90. volume: 297.1(1) crystal system: monoclinic
x	intensity
5	0
5.22	11.512
5.44	7.229
5.66	5.589
5.88	11.317
6.1	6.399
6.32	10.672
6.54	14.717
6.76	11.114
6.98	9.348
7.2	2.166
7.42	4.546
7.64	0.256
7.86	1.101
8.08	8.896
8.3	0.947
8.52	12.894
8.74	0.799
8.96	11.536
9.18	3.026
9.4	15.724
9.62	5.401
9.84	0.39
10.06	6.411
10.28	1.673
10.5	4.178
10.72	16.292
10.94	2.515
11.16	8.665
11.38	9.85
11.6	4.768
11.82	7.991
12.04	7.095
12.26	4.374
12.48	7.461
12.7	1.475
12.92	9.182
13.14	6.349
13.36	4.211
13.58	9.163
13.8	4.984
14.02	10.141
14.24	14
14.46	1.355
14.68	11.099
14.9	4.805
15.12	1.233
15.34	11.25
15.56	3.953
15.78	8.913
16	9.793
16.22	0.353
16.44	4.658
16.66	15.236
16.88	10.248
17.1	5.982
17.32	9.684
17.54	9.886
17.77	3.436
17.99	10.103
18.21	2.872
18.43	14.748
18.65	18.051
18.87	16.814
19.09	41.553
19.31	1.446
19.53	9.761
19.75	3.338
19.97	4.347
20.19	1.396
20.41	4.48
20.63	4.524
20.85	6.481
21.07	15.075
21.29	57.405
21.51	20.543
21.73	35.383
21.95	13.266
22.17	3.184
22.39	2.591
22.61	2.655
22.83	11.117
23.05	11.616
23.27	7.728
23.49	3.71
23.71	0.908
23.93	3.814
24.15	0.592
24.37	0.116
24.59	8.108
24.81	11.38
25.03	7.418
25.25	27.747
25.47	86.126
25.69	23.659
25.91	1.326
26.13	7.997
26.35	6.681
26.57	1.128
26.79	26.495
27.01	86.813
27.23	124.944
27.45	31.123
27.67	6.605
27.89	8.901
28.11	2.324
28.33	11.631
28.55	13.343
28.77	54.9
28.99	145.006
29.21	53.727
29.43	8.915
29.65	7.177
29.87	20.439
30.09	13.756
30.31	7.278
30.53	1.044
30.75	8.017
30.97	20.338
31.19	132.02
31.41	30.29
31.63	9.521
31.85	0.649
32.07	6.421
32.29	8.244
32.51	8.911
32.73	9.582
32.95	8.007
33.17	3.194
33.39	4.614
33.61	5.01
33.83	0.749
34.05	4.147
34.27	17.067
34.49	27.612
34.71	12.881
34.93	2.282
35.15	0.788
35.37	0.964
35.59	1.115
35.81	6.727
36.03	1.546
36.25	15.931
36.47	14.592
36.69	21.346
36.91	16.929
37.13	16.107
37.35	7.67
37.57	15.015
37.79	6.337
38.01	9.957
38.23	8.611
38.45	11.371
38.67	3.721
38.89	16.258
39.11	9.431
39.33	7.385
39.55	8.849
39.77	9.415
39.99	8.34
40.21	2.377
40.43	7.061
40.65	10.747
40.87	1.812
41.09	7.018
41.31	52.631
41.53	9.698
41.75	8.065
41.97	19.579
42.19	19.911
42.41	28.665
42.63	40.654
42.85	20.395
43.07	10.449
43.29	17.714
43.51	2.307
43.73	14.495
43.95	8.452
44.17	12.667
44.39	14.305
44.61	13.318
44.83	2.906
45.05	8.245
45.27	13.847
45.49	6.003
45.71	6.495
45.93	10.476
46.15	27.042
46.37	15.14
46.59	17.776
46.81	10.063
47.03	25.498
47.25	2.012
47.47	0.34
47.69	12.275
47.91	16.942
48.13	2.667
48.35	19.655
48.57	32.57
48.79	35.72
49.01	23.269
49.23	22.671
49.45	12.272
49.67	17.772
49.89	6.565
50.11	7.649
50.33	5.2
50.55	7.398
50.77	9.471
50.99	4.241
51.21	5.622
51.43	4.961
51.65	17.104
51.87	18.85
52.09	12.748
52.31	17.491
52.53	37.519
52.75	31.439
52.97	10.83
53.19	10.326
53.41	1.129
53.63	1.537
53.85	2.063
54.07	5.29
54.29	23.741
54.51	21.191
54.73	3.245
54.95	12.813
55.17	6.061
55.39	2.832
55.61	13.51
55.83	4.452
56.05	3.222
56.27	12.6
56.49	6.581
56.71	4.163
56.93	10.882
57.15	10.731
57.37	4.48
57.59	2.529
57.81	13.679
58.03	4.438
58.25	9.525
58.47	14.903
58.69	5.412
58.91	3.879
59.13	10.388
59.35	5.824
59.57	8.293
59.79	5.809
60.01	11.615
60.23	13.312
60.45	17.346
60.67	10.808
60.89	11.396
61.11	9.705
61.33	5.797
61.55	4.847
61.77	2.909
61.99	8.929
62.21	1.237
62.43	10.211
62.65	2.802
62.87	6.497
63.09	2.11
63.31	7.478
63.53	1.764
63.75	5.844
63.97	9.051
64.19	10.182
64.41	3.356
64.63	2.733
64.85	8.495
65.07	5.911
65.29	10.391
65.51	5.682
65.73	6.942
65.95	9.524
66.17	5.398
66.39	1.802
66.61	3.186
66.83	1.85
67.05	1.61
67.27	0.524
67.49	11.838
67.71	0.067
67.93	0.363
68.15	0.195
68.37	12.597
68.59	4.521
68.81	5.126
69.03	8.509
69.25	10.191
69.47	11.034
69.69	7.852
69.91	9.793
70.13	4.031
70.35	14.206
70.57	7.726
70.79	18.819
71.01	8.74
71.23	10.96
71.45	6.326
71.67	1.456
71.89	4.514
72.11	2.645
72.33	6.715
72.55	6.914
72.77	2.647
72.99	12.116
73.21	7.264
73.43	5.267
73.65	2.437
73.87	10.693
74.09	8.56
74.31	7.032
74.53	10.359
74.75	5.765
74.97	1.763
75.19	4.022
75.41	2.16
75.63	1.206
75.85	9.286
76.07	1.209
76.29	6.889
76.51	12.207
76.73	3.953
76.95	1.967
77.17	8.875
77.39	3.868
77.61	17.34
77.83	0.312
78.05	8.869
78.27	9.109
78.49	5.486
78.71	1.902
78.93	0.848
79.15	10.356
79.37	0.489
79.59	6.754
79.81	0.061
80.03	3.68
80.25	4.49
80.47	0.472
80.69	7.37
80.91	15.305
81.13	3.459
81.35	10.36
81.57	12.296
81.79	9.844
82.01	4.369
82.23	8.203
82.45	2.219
82.67	1.998
82.89	6.782
83.11	13.427
83.33	6.286
83.55	12.949
83.77	14.148
83.99	6.098
84.21	8.124
84.43	13.282
84.65	9.551
84.87	4.601
85.09	4.749
85.31	5.932
85.53	10.896
85.75	8.063
85.97	14.776
86.19	8.766
86.41	8.792
86.63	5.993
86.85	9.961
87.07	19.89
87.29	4.921
87.51	10.961
87.73	5.874
87.95	5.688
88.17	11.779
88.39	9.894
88.61	3.022
88.83	11.372
89.05	14.623
89.27	1.672
89.49	15.216
89.71	3.663
89.93	15.042
