Measurement: Powder, Xray Data XY Processed
Mineral: Montebrasite
Rruff sample: R040062
Ideal chemistry: LiAlPO_4_(OH)
Locality: Hebron, Maine, USA
Source: University of Arizona Mineral Museum
Description: White massive
Diffraction sample description: Powder
Measured chemistry: LiAl(PO_4_)((OH)_0.62_F_0.38_)
Cell parameters: a: 6.7076(3) b: 7.7202(4) c: 6.9946(3) alpha: 91.095(4) beta: 117.836(4) gamma: 91.530(4) volume: 319.98(2) crystal system: triclinic
x	intensity
5	0
5.22	8.555
5.44	4.549
5.66	10.111
5.88	24.004
6.1	8.259
6.32	18.622
6.54	14.941
6.76	6.103
6.98	9.815
7.2	4.485
7.42	10.073
7.64	8.598
7.86	0.222
8.08	1.994
8.3	7.593
8.52	1.01
8.74	5.386
8.96	1.76
9.18	9.007
9.4	2.406
9.62	1.676
9.84	0.877
10.06	6.345
10.28	11.583
10.5	1.453
10.72	5.53
10.94	3.618
11.16	0.463
11.38	6.549
11.6	7.251
11.82	1.095
12.04	7.296
12.26	6.08
12.48	9.153
12.7	6.939
12.92	2.91
13.14	6.795
13.36	7.841
13.58	3.95
13.8	3.839
14.02	3.922
14.24	10.004
14.46	4.868
14.68	0.071
14.9	0.993
15.12	16.176
15.34	3.606
15.56	6.907
15.78	3.06
16	3.1
16.22	3.339
16.44	8.629
16.66	7.781
16.88	1.82
17.1	0.747
17.32	2.536
17.54	10.312
17.76	6.837
17.98	4.457
18.2	4.098
18.42	9.051
18.64	11.931
18.86	26.036
19.08	428.651
19.3	191.501
19.52	4.618
19.74	5.83
19.96	2.686
20.18	3.572
20.4	13.823
20.62	9.17
20.84	7.411
21.06	0.357
21.28	9.269
21.5	5.482
21.72	1.745
21.94	2.721
22.16	4.826
22.38	0.93
22.6	7.938
22.82	1.246
23.04	9.051
23.26	6.195
23.48	2.22
23.7	6.208
23.92	7.251
24.14	2.169
24.36	3.399
24.58	13.387
24.8	4.753
25.02	5.753
25.24	2.736
25.46	13.231
25.68	8.333
25.9	6.422
26.12	0.329
26.34	9.062
26.56	13.589
26.78	67.168
27	15.028
27.22	58.316
27.44	69.142
27.66	34.629
27.88	180.743
28.1	17.205
28.32	480.449
28.54	11.858
28.76	11.683
28.98	16.358
29.2	2.941
29.42	8.675
29.64	7.198
29.86	6.794
30.08	62.008
30.3	151.019
30.52	67.986
30.74	2.822
30.96	0.35
31.18	6.649
31.4	14.567
31.62	6.201
31.84	7.758
32.06	3.221
32.28	7.581
32.5	3.062
32.72	7.162
32.94	5.678
33.16	5.946
33.38	3.083
33.6	2.273
33.82	12.91
34.04	8.728
34.26	4.208
34.48	5.327
34.7	8.201
34.92	13.089
35.14	29.028
35.36	10.622
35.58	3.375
35.8	0.273
36.02	57.401
36.24	6.462
36.46	6.167
36.68	19.307
36.9	1.855
37.12	2.785
37.34	0.411
37.56	157.047
37.78	21.761
38	33.559
38.22	5.313
38.44	16.692
38.66	6.781
38.88	5.89
39.1	38.536
39.32	8.1
39.54	12.216
39.76	3.734
39.98	14.125
40.2	6.633
40.42	6.371
40.64	2.579
40.86	5.764
41.08	97.755
41.3	0.208
41.52	6.396
41.74	3.999
41.96	1.767
42.18	5.638
42.4	12.778
42.62	73.755
42.84	7.353
43.06	37.334
43.28	5.387
43.5	6.242
43.72	6.524
43.94	6.839
44.16	1.873
44.38	8.133
44.6	19.273
44.82	6.335
45.04	2.232
45.26	6.113
45.48	9.988
45.7	4.87
45.92	4.652
46.14	5.164
46.36	21.73
46.58	55.831
46.8	41.64
47.02	57.425
47.24	21.04
47.46	0.362
47.68	7.129
47.9	11.493
48.12	119.812
48.34	13.164
48.56	5.594
48.78	9.547
49	1.719
49.22	2.818
49.44	3.887
49.66	1.011
49.88	1.301
50.1	10.942
50.32	5.939
50.54	3.121
50.76	0.001
50.98	55.869
51.2	4.936
51.42	8.026
51.64	8.119
51.86	7.561
52.08	15.714
52.3	8.057
52.52	38.638
52.74	6.5
52.96	7.169
53.18	1.375
53.4	5.23
53.62	4.974
53.84	5.876
54.06	6.449
54.28	3.665
54.5	10.267
54.72	7.695
54.94	12.232
55.16	11.052
55.38	32.723
55.6	9.651
55.82	49.883
56.04	7.759
56.26	19.394
56.48	36.317
56.7	3.326
56.92	13.362
57.14	46.52
57.36	65.214
57.58	12.289
57.8	22.024
58.02	7.818
58.24	8.12
58.46	63.568
58.68	9.935
58.9	0.221
59.12	4.334
59.34	0.361
59.56	6.382
59.78	3.417
60	6.351
60.22	31.817
60.44	10.511
60.66	6.369
60.88	28.661
61.1	7.87
61.32	3.045
61.54	6.501
61.76	5.635
61.98	2.823
62.2	2.105
62.42	1.716
62.64	14.3
62.86	39.669
63.08	11.745
63.3	2.637
63.52	12.724
63.74	7.35
63.96	1.705
64.18	8.292
64.4	0.38
64.62	5.283
64.84	41.334
65.06	37.359
65.28	1.629
65.5	6.4
65.72	8.239
65.94	6.027
66.16	3.135
66.38	0.291
66.6	7.259
66.82	19.218
67.04	9.3
67.26	6.266
67.48	8.59
67.7	14.315
67.92	7.443
68.14	4.588
68.36	0.742
68.58	3.068
68.8	5.3
69.02	8.49
69.24	5.673
69.46	5.757
69.68	6.856
69.9	4.63
70.12	4.881
70.34	11.918
70.56	5.975
70.78	13.869
71	6.499
71.22	5.087
71.44	3.843
71.66	2.792
71.88	5.619
72.1	9.257
72.32	21.064
72.54	6.594
72.76	3.272
72.98	0.988
73.2	6.957
73.42	5.864
73.64	5.844
73.86	49.007
74.08	32.122
74.3	4.482
74.52	7.688
74.74	4.837
74.96	9.093
75.18	2.383
75.4	2.661
75.62	10.872
75.84	8.055
76.06	69.674
76.28	26.162
76.5	16.057
76.72	7.886
76.94	4.897
77.16	7.88
77.38	0.076
77.6	2.806
77.82	9.71
78.04	7.662
78.26	29.785
78.48	8.166
78.7	25.836
78.92	13.027
79.14	4.005
79.36	5.057
79.58	6.521
79.8	5.029
80.02	5.169
80.24	4.33
80.46	0.417
80.68	4.477
80.9	2.492
81.12	11.373
81.34	6.029
81.56	6.877
81.78	7.728
82	0.88
82.22	11.609
82.44	6.689
82.66	9.933
82.88	10.858
83.1	21.131
83.32	7.216
83.54	7.447
83.76	5.684
83.98	3.078
84.2	8.437
84.42	3.815
84.64	10.03
84.86	6.139
85.08	9.121
85.3	10.08
85.52	4.782
85.74	16.762
85.96	5.726
86.18	10.737
86.4	3.416
86.62	7.226
86.84	3.898
87.06	4.666
87.28	0.408
87.5	14.472
87.72	1.541
87.94	5.545
88.16	4.551
88.38	3.556
88.6	8.543
88.82	6.871
89.04	12.057
89.26	6.369
89.48	6.126
89.7	5.634
89.92	5.043
