Measurement: Powder, Xray Data XY Processed
Mineral: Monticellite
Rruff sample: R040115
Ideal chemistry: CaMgSiO_4_
Locality: Magnet Cove, Arkansas, USA
Source: University of Arizona Mineral Museum
Description: Brown blebs in matrix
Diffraction sample description: Powder
Measured chemistry: Ca_0.99_(Mg_0.85_ Fe_0.12_Mn_0.03_)Si_1.00_O_4_
Cell parameters: a: 4.8295(6) b: 11.1083(6) c: 6.3872(6) alpha: 90. beta: 90. gamma: 90. volume: 342.66(4) crystal system: orthorhombic
x	intensity
5	0
5.22	23.1331
5.44	16.9558
5.66	13.1432
5.88	4.10402
6.1	11.2148
6.32	6.00549
6.54	15.2823
6.76	2.64274
6.98	10.782
7.2	8.04374
7.42	9.82144
7.64	6.14446
7.86	9.80809
8.08	6.75014
8.3	9.36787
8.52	1.78288
8.74	8.53985
8.96	10.4984
9.18	6.07058
9.4	13.5345
9.62	1.03288
9.84	2.81117
10.06	1.78632
10.28	16.5977
10.5	8.96097
10.72	10.8779
10.94	11.5301
11.16	2.97524
11.38	15.5429
11.6	15.3421
11.82	3.39461
12.04	7.5917
12.26	0.650753
12.48	2.7457
12.7	10.9027
12.92	11.2281
13.14	13.2347
13.36	5.55266
13.58	14.8876
13.8	8.13305
14.02	5.66727
14.24	10.3276
14.46	5.0624
14.68	6.97777
14.9	6.92998
15.12	0.63763
15.34	3.68127
15.56	3.60197
15.78	14.5938
16	44.546
16.22	17.1022
16.44	7.91826
16.66	18.0549
16.88	24.838
17.1	2.84231
17.32	2.83996
17.54	2.75985
17.76	6.26285
17.98	8.29866
18.2	7.30761
18.42	10.059
18.64	0.039936
18.86	18.8017
19.08	2.67766
19.3	6.17944
19.52	7.81007
19.74	5.61287
19.96	13.0706
20.18	6.65988
20.4	6.86552
20.62	3.35976
20.84	22.317
21.06	8.98719
21.28	32.5278
21.5	11.2307
21.72	10.8452
21.94	11.8163
22.16	13.6972
22.38	0.474041
22.6	2.66799
22.82	5.36377
23.04	22.8949
23.26	6.74129
23.48	5.31102
23.7	21.0966
23.92	19.9701
24.14	8.66451
24.36	28.5029
24.58	13.3111
24.8	3.52945
25.02	12.3362
25.24	4.93126
25.46	10.4805
25.68	11.21
25.9	0.007645
26.12	16.2566
26.34	2.55132
26.56	9.87252
26.78	9.112
27	3.31125
27.22	15.3977
27.44	10.4998
27.66	10.3445
27.88	26.3357
28.1	16.6708
28.32	2.31949
28.54	0.582157
28.76	3.1802
28.98	6.24552
29.2	5.26157
29.42	12.3133
29.64	11.4091
29.86	5.03263
30.08	9.37911
30.3	20.2973
30.52	224.759
30.74	18.157
30.96	8.95307
31.18	7.72983
31.4	4.87878
31.62	0.971464
31.84	17.2863
32.06	0.868494
32.28	18.0995
32.5	14.0093
32.72	9.16971
32.94	12.8478
33.16	9.81226
33.38	11.6155
33.6	131.503
33.82	14.3973
34.04	14.4406
34.26	1.04167
34.48	6.13971
34.7	140.007
34.92	17.4654
35.14	17.0525
35.36	10.5687
35.58	7.89822
35.8	6.52256
36.02	10.826
36.24	14.1036
36.46	17.3564
36.68	1.36842
36.9	3.55449
37.12	5.13465
37.34	34.2654
37.56	19.3988
37.78	6.71626
38	0.324196
38.22	7.24895
38.44	7.82001
38.66	4.3862
38.88	9.69032
39.1	1.12518
39.32	5.23084
39.54	8.42735
39.76	8.46384
39.98	8.67198
40.2	12.2724
40.42	1.88501
40.64	10.1513
40.86	21.8964
41.08	9.59986
41.3	17.8926
41.52	7.01436
41.74	19.8269
41.96	13.9559
42.18	6.84456
42.4	1.79986
42.62	14.8774
42.84	6.99505
43.06	0.177166
43.28	10.9943
43.5	12.0629
43.72	18.1735
43.94	1.14724
44.16	7.37118
44.38	14.2921
44.6	0.367035
44.82	8.25318
45.04	9.54627
45.26	3.78311
45.48	8.75057
45.7	11.5523
45.92	11.3832
46.14	4.00872
46.36	3.97145
46.58	8.10096
46.8	1.9808
47.02	12.0104
47.24	21.4252
47.46	22.9097
47.68	5.36029
47.9	3.00316
48.12	12.9413
48.34	12.787
48.56	8.22427
48.78	20.1339
49	4.66254
49.22	13.7656
49.44	10.7062
49.66	16.4736
49.88	3.59776
50.1	79.9026
50.32	7.00021
50.54	4.35396
50.76	13.7655
50.98	7.72628
51.2	9.26223
51.42	25.3768
51.64	9.34918
51.86	1.23552
52.08	11.9707
52.3	18.3834
52.52	7.26919
52.74	4.57135
52.96	9.6866
53.18	11.661
53.4	0.762548
53.62	8.86523
53.84	21.4227
54.06	17.0133
54.28	25.5087
54.5	7.14593
54.72	3.1131
54.94	5.35896
55.16	10.1621
55.38	0.688886
55.6	7.39069
55.82	19.4527
56.04	11.4504
56.26	0.923882
56.48	1.59918
56.7	6.04781
56.92	8.5371
57.14	3.46223
57.36	4.35643
57.58	31.23
57.8	13.1687
58.02	20.1518
58.24	5.07729
58.46	1.0053
58.68	3.24491
58.9	5.79947
59.12	9.43232
59.34	7.5806
59.56	5.48385
59.78	13.4668
60	9.50021
60.22	10.5059
60.44	14.3572
60.66	8.96608
60.88	3.07783
61.1	9.14801
61.32	11.3892
61.54	7.36646
61.76	11.3776
61.98	8.59296
62.2	1.65003
62.42	7.98969
62.64	13.1538
62.86	1.40565
63.08	8.55462
63.3	13.4578
63.52	5.84572
63.74	12.76
63.96	7.84987
64.18	4.91888
64.4	5.11242
64.62	0.078897
64.84	14.0842
65.06	5.04552
65.28	7.56546
65.5	16.7203
65.72	3.55082
65.94	0.813123
66.16	3.19831
66.38	6.21436
66.6	9.38955
66.82	12.438
67.04	4.30116
67.26	20.2769
67.48	4.27408
67.7	12.7465
67.92	9.90001
68.14	13.0631
68.36	5.39369
68.58	4.39212
68.8	6.49344
69.02	7.38915
69.24	16.4418
69.46	13.3518
69.68	3.36363
69.9	9.34844
70.12	3.3895
70.34	0.716675
70.56	12.0707
70.78	6.63202
71	7.32698
71.22	6.32218
71.44	3.84162
71.66	0.163324
71.88	1.07427
72.1	7.03296
72.32	6.27917
72.54	12.4545
72.76	8.7696
72.98	4.92386
73.2	5.69732
73.42	0.904752
73.64	8.15525
73.86	3.82346
74.08	7.90588
74.3	5.9104
74.52	12.8191
74.74	2.88713
74.96	12.7989
75.18	12.7403
75.4	3.77285
75.62	4.66456
75.84	5.63687
76.06	7.60335
76.28	2.7389
76.5	0.107383
76.72	2.12965
76.94	4.29549
77.16	0.236664
77.38	4.28958
77.6	8.26835
77.82	4.38861
78.04	9.39294
78.26	9.31194
78.48	2.36098
78.7	4.16899
78.92	8.22662
79.14	10.2223
79.36	16.0976
79.58	7.96284
79.8	13.1319
80.02	14.248
80.24	3.1578
80.46	6.11907
80.68	10.0384
80.9	7.96345
81.12	4.92927
81.34	7.71701
81.56	0.840431
81.78	4.89064
82	4.08771
82.22	16.0553
82.44	4.98448
82.66	11.4491
82.88	13.6917
83.1	10.9881
83.32	5.2798
83.54	0.486061
83.76	6.67376
83.98	11.8582
84.2	18.9729
84.42	11.9388
84.64	12.8129
84.86	11.8487
85.08	10.1041
85.3	4.93584
85.52	5.76413
85.74	1.56827
85.96	2.36989
86.18	10.2394
86.4	7.3348
86.62	4.22401
86.84	8.08592
87.06	8.01778
87.28	9.88948
87.5	7.50661
87.72	10.6848
87.94	4.65498
88.16	2.76929
88.38	2.70769
88.6	8.95913
88.82	7.08942
89.04	9.47132
89.26	6.8531
89.48	15.8924
89.7	9.60195
89.92	6.02937
