Measurement: Powder, Xray Data XY Processed
Mineral: Mottramite
Rruff sample: R050521
Ideal chemistry: Pb^2+^Cu^2+^V^5+^O_4_(OH)
Locality: Tsumeb mine, Tsumeb, Otavi District, Oshikoto, Namibia
Source: University of Arizona Mineral Museum
Description: Green tubular sprays
Diffraction sample description: Powder
Measured chemistry: Pb_1.00_Cu_1.00_((V_0.97_As_0.03_)_Î£=1_O_4_)(OH)
Cell parameters: a: 7.6912(3) b: 6.0455(3) c: 9.2274(4) alpha: 90. beta: 90. gamma: 90. volume: 429.05(2) crystal system: orthorhombic
x	intensity
5	0
5.22	11.646
5.44	8.851
5.66	11.082
5.88	13.815
6.1	5.935
6.32	1.443
6.54	12.364
6.76	11.369
6.98	11.601
7.2	5.246
7.42	11.881
7.64	14.527
7.86	6.235
8.08	5.067
8.3	9.805
8.52	1.22
8.74	3.322
8.96	0.247
9.18	7.853
9.4	6.394
9.62	0.304
9.84	8.014
10.06	4.559
10.28	9.125
10.5	9.17
10.72	2.428
10.94	10.037
11.16	5.007
11.38	7.963
11.6	0.795
11.82	1.921
12.04	4.227
12.26	9.335
12.48	11.387
12.7	5.504
12.92	11.734
13.14	6.868
13.36	6.278
13.58	8.735
13.8	0.979
14.02	4.223
14.24	3.48
14.46	11.506
14.68	1.412
14.9	12.593
15.12	2.559
15.34	0.516
15.56	9.176
15.78	6.143
16	10.587
16.22	2.44
16.44	8.175
16.66	0.766
16.88	5.458
17.1	9.161
17.32	12.014
17.54	135.969
17.76	16.958
17.98	4.851
18.2	2.923
18.42	12.103
18.64	4.71
18.86	2.846
19.08	13.223
19.3	43.748
19.52	6.809
19.74	6.855
19.96	3.58
20.18	5.621
20.4	3.648
20.62	8.915
20.84	2.67
21.06	101
21.28	1.923
21.5	0.497
21.72	2.382
21.94	5.386
22.16	9.539
22.38	15.642
22.6	18.542
22.82	13.692
23.04	8.525
23.26	14.799
23.48	1.222
23.7	4.402
23.92	4.44
24.14	5.061
24.36	9.329
24.58	4.155
24.8	10.032
25.02	25.03
25.24	23.731
25.46	6.707
25.68	3.093
25.9	5.311
26.12	8.733
26.34	10.335
26.56	2.977
26.78	18.403
27	40.093
27.22	15.971
27.44	133.55
27.66	50.704
27.88	8.313
28.1	12.458
28.32	11.646
28.54	0.146
28.76	4.985
28.98	8.06
29.2	13.992
29.42	21.012
29.64	43.028
29.86	0.525
30.08	7.159
30.3	20.266
30.52	6.255
30.74	4.451
30.96	3.254
31.18	20.93
31.4	101.638
31.62	10.833
31.84	5.216
32.06	0.001
32.28	6.468
32.5	10.195
32.72	10.752
32.94	4.289
33.16	15.996
33.38	47.178
33.6	24.54
33.82	100.355
34.04	8.821
34.26	1.824
34.48	7.584
34.7	99.705
34.92	36.41
35.14	6.933
35.36	5.364
35.58	37.892
35.8	4.341
36.02	7.369
36.24	7.042
36.46	21.672
36.68	14.249
36.9	5.065
37.12	12.266
37.34	16.586
37.56	17.502
37.78	13.54
38	14.094
38.22	2.981
38.44	6.583
38.66	8.79
38.88	13.068
39.1	63.919
39.32	29.538
39.54	6.406
39.76	6.959
39.98	5.165
40.2	23.44
40.42	21.191
40.64	6.441
40.86	35.714
41.08	1.566
41.3	10.587
41.52	11.942
41.74	3.923
41.96	5.893
42.18	1.84
42.4	10.69
42.62	12.432
42.84	21.71
43.06	26.106
43.28	10.237
43.5	31.106
43.72	26.088
43.94	0.083
44.16	8.397
44.38	5.788
44.6	3.978
44.82	0.916
45.04	1.168
45.26	9.225
45.48	1.323
45.7	4.224
45.92	18.128
46.14	19.868
46.36	12.719
46.58	2.019
46.8	0.739
47.02	7.181
47.24	15.98
47.46	7.789
47.68	17.609
47.9	5.505
48.12	5.088
48.34	18.092
48.56	16.9
48.78	22.703
49	4.597
49.22	2.22
49.44	4.211
49.66	16.941
49.88	13.699
50.1	0.528
50.32	2.225
50.54	11.492
50.76	22.27
50.98	15.338
51.2	37.051
51.42	44.26
51.64	24.667
51.86	18.93
52.08	7.306
52.3	10.68
52.52	7.984
52.74	7.45
52.96	3.624
53.18	24.283
53.4	16.442
53.62	4.985
53.84	0.809
54.06	3.445
54.28	5.143
54.5	0.557
54.72	2.985
54.94	7.507
55.16	37.942
55.38	17.793
55.6	55.086
55.82	69.678
56.04	12.148
56.26	13.725
56.48	9.84
56.7	23.549
56.92	13.377
57.14	3.101
57.36	0.825
57.58	1.145
57.8	3.733
58.02	2.894
58.24	9.201
58.46	6.137
58.68	8.674
58.9	1.683
59.12	10.842
59.34	8.713
59.56	8.86
59.78	14.394
60	34.997
60.22	15.382
60.44	14.18
60.66	2.283
60.88	4.449
61.1	8.274
61.32	9.121
61.54	16.868
61.76	8.526
61.98	20.016
62.2	12.173
62.42	7.327
62.64	2.517
62.86	4.579
63.08	5.74
63.3	0.452
63.52	11.772
63.74	11.769
63.96	9.753
64.18	16.064
64.4	6.476
64.62	5.956
64.84	12.527
65.06	3.634
65.28	12.725
65.5	4.824
65.72	1.403
65.94	5.31
66.16	16.927
66.38	12.738
66.6	10.349
66.82	5.378
67.04	0.945
67.26	25.457
67.48	15.667
67.7	2.232
67.92	6.329
68.14	8.366
68.36	12.522
68.58	10.179
68.8	2.246
69.02	12.218
69.24	13.935
69.46	4.878
69.68	3.866
69.9	7.42
70.12	14.416
70.34	19.777
70.56	15.712
70.78	5.502
71	3.364
71.22	0.595
71.44	3.584
71.66	6.627
71.88	5.904
72.1	13.825
72.32	12.567
72.54	12.325
72.76	3.78
72.98	5.922
73.2	1.77
73.42	17.993
73.64	21.202
73.86	4.292
74.08	17.591
74.3	24.649
74.52	1.205
74.74	4.282
74.96	1.322
75.18	2.356
75.4	14.199
75.62	12.159
75.84	26.681
76.06	13.545
76.28	17.798
76.5	9.687
76.72	4.72
76.94	3.679
77.16	7.193
77.38	3.375
77.6	3.046
77.82	7.184
78.04	11.271
78.26	9.504
78.48	5.28
78.7	11.138
78.92	9.867
79.14	6.324
79.36	8.256
79.58	5.779
79.8	12.79
80.02	0.149
80.24	14.047
80.46	7.896
80.68	10.621
80.9	1.585
81.12	3.926
81.34	5.833
81.56	10.745
81.78	10.383
82	7.293
82.22	7.179
82.44	11.372
82.66	6.236
82.88	8.215
83.1	9.128
83.32	9.307
83.54	2.953
83.76	18.322
83.98	17.507
84.2	17.798
84.42	5.621
84.64	5.82
84.86	3.585
85.08	14.857
85.3	13.878
85.52	10.091
85.74	6.848
85.96	9.732
86.18	4.437
86.4	2.307
86.62	3.506
86.84	8.54
87.06	18.533
87.28	21.684
87.5	18.639
87.72	12.882
87.94	7.975
88.16	6.567
88.38	0.889
88.6	11.56
88.82	10.052
89.04	3.241
89.26	7.843
89.48	11.74
89.7	8.636
89.92	1.98
