Measurement: Powder, Xray Data XY Processed
Mineral: Muscovite
Rruff sample: R050198
Ideal chemistry: KAl_2_(Si_3_Al)O_10_(OH)_2_
Locality: California, USA
Source: University of Arizona Mineral Museum
Description: Micaceous aggregate, polytype 2M1
Diffraction sample description: Powder
Measured chemistry: (K_0.92_Na_0.08_)(Al_0.76_Mg_0.18_Fe^3+^_0.04_Fe^2+^_0.02_)_2_(Si_3.40_Al_0.60_)O_10_(OH)_2_
Cell parameters: a: 5.2132(7) b: 9.044(1) c: 19.9446(3) alpha: 90. beta: 95.752(5) gamma: 90. volume: 935.6(1) crystal system: monoclinic
x	intensity
5	0
5.22	17.6934
5.44	9.92879
5.66	15.1097
5.88	16.616
6.1	12.9771
6.32	12.8686
6.54	3.26099
6.76	4.39046
6.98	14.1484
7.2	1.74838
7.42	8.93273
7.64	1.33844
7.86	12.7374
8.08	29.0231
8.3	14.3655
8.52	17.1713
8.74	56.6996
8.96	1121.96
9.18	10.8294
9.4	12.7739
9.62	1.78945
9.84	9.82811
10.06	2.11233
10.28	0.231245
10.5	5.06556
10.72	4.96567
10.94	13.4375
11.16	7.96581
11.38	7.97656
11.6	0.050657
11.82	8.21331
12.04	8.43104
12.26	14.7041
12.48	8.79884
12.7	4.75598
12.92	14.9883
13.14	20.8187
13.36	11.2092
13.58	2.52314
13.8	10.4953
14.02	15.7627
14.24	1.97184
14.46	7.78854
14.68	11.7708
14.9	3.81212
15.12	14.3995
15.34	17.5468
15.56	9.36719
15.78	9.69412
16	0.183372
16.22	0.57394
16.44	14.45
16.66	10.0947
16.88	7.94597
17.1	4.66716
17.32	8.39007
17.54	7.17138
17.76	27.7207
17.98	161.799
18.2	12.646
18.42	6.06288
18.64	7.70328
18.86	6.68953
19.08	14.6059
19.3	3.64986
19.52	6.53809
19.74	36.8162
19.96	26.2477
20.18	22.7233
20.4	22.506
20.62	10.2359
20.84	2.34699
21.06	11.5616
21.28	8.39109
21.5	6.12254
21.72	7.67021
21.94	1.38978
22.16	1.88335
22.38	11.3003
22.6	4.72375
22.82	9.50011
23.04	31.3797
23.26	3.69827
23.48	8.09524
23.7	22.7701
23.92	53.2052
24.14	11.1057
24.36	11.9105
24.58	4.17272
24.8	5.83226
25.02	7.91223
25.24	9.36476
25.46	34.4769
25.68	47.5812
25.9	10.034
26.12	0.478758
26.34	13.1905
26.56	8.53842
26.78	56.0159
27	831.713
27.22	33.1208
27.44	11.9637
27.66	0.905361
27.88	82.2908
28.1	19.4756
28.32	2.39348
28.54	9.05815
28.76	26.8835
28.98	16.6219
29.2	1.29292
29.42	10.4006
29.64	6.86059
29.86	60.4766
30.08	73.8065
30.3	9.34977
30.52	1.22941
30.74	7.22299
30.96	15.327
31.18	18.4126
31.4	82.5725
31.62	13.2386
31.84	1.57441
32.06	21.2303
32.28	52.5519
32.5	22.4966
32.72	15.1255
32.94	11.3571
33.16	9.06101
33.38	4.2642
33.6	5.41685
33.82	0.609709
34.04	0.160477
34.26	18.2573
34.48	34.1636
34.7	27.0313
34.92	50.1119
35.14	42.4916
35.36	2.0622
35.58	6.43871
35.8	6.55387
36.02	16.5734
36.24	61.5509
36.46	14.6689
36.68	7.58616
36.9	1.73677
37.12	3.90494
37.34	3.70109
37.56	26.428
37.78	28.8484
38	8.36675
38.22	1.95355
38.44	1.15242
38.66	1.65137
38.88	3.00522
39.1	15.1538
39.32	3.16389
39.54	0.933199
39.76	8.49712
39.98	12.0551
40.2	4.94937
40.42	5.63632
40.64	1.97482
40.86	7.50749
41.08	5.93182
41.3	18.7748
41.52	12.7492
41.74	7.0038
41.96	11.6199
42.18	20.8676
42.4	32.3477
42.62	12.7498
42.84	5.91202
43.06	3.72888
43.28	5.20527
43.5	0.42115
43.72	3.65203
43.94	11.5295
44.16	5.02283
44.38	3.05558
44.6	7.60063
44.82	4.95989
45.04	3.41484
45.26	12.0774
45.48	13.7013
45.7	258.363
45.92	47.4477
46.14	21.3792
46.36	18.028
46.58	17.4294
46.8	6.48693
47.02	2.01653
47.24	4.47199
47.46	10.2858
47.68	12.7686
47.9	6.16653
48.12	8.4702
48.34	8.45703
48.56	4.13498
48.78	7.8651
49	8.6303
49.22	10.4713
49.44	11.81
49.66	9.21214
49.88	7.1206
50.1	15.7916
50.32	12.9804
50.54	7.52993
50.76	5.71635
50.98	13.2657
51.2	5.1187
51.42	5.06406
51.64	0.835003
51.86	1.25473
52.08	5.34801
52.3	8.04288
52.52	5.30982
52.74	6.04537
52.96	4.47138
53.18	18.4517
53.4	15.612
53.62	5.30461
53.84	9.31822
54.06	6.12788
54.28	5.87649
54.5	5.52545
54.72	7.2006
54.94	9.84652
55.16	8.50789
55.38	7.95845
55.6	16.9195
55.82	17.6276
56.04	39.7208
56.26	13.4097
56.48	13.4153
56.7	3.70509
56.92	11.3739
57.14	10.1776
57.36	6.74696
57.58	7.46934
57.8	3.19487
58.02	10.6298
58.24	2.74744
58.46	6.92477
58.68	7.13839
58.9	6.43599
59.12	1.7089
59.34	13.3719
59.56	12.8731
59.78	11.4129
60	3.68142
60.22	2.04744
60.44	5.39342
60.66	1.9859
60.88	4.71468
61.1	27.5954
61.32	23.3121
61.54	31.2331
61.76	11.3851
61.98	16.0899
62.2	11.5496
62.42	10.1684
62.64	10.6849
62.86	0.890604
63.08	8.45238
63.3	2.69717
63.52	5.8278
63.74	4.33378
63.96	7.13431
64.18	11.9136
64.4	4.31922
64.62	6.0981
64.84	2.86014
65.06	2.84849
65.28	2.88564
65.5	15.2586
65.72	3.68579
65.94	26.1249
66.16	12.0061
66.38	11.5612
66.6	4.00567
66.82	5.29931
67.04	3.97415
67.26	8.62154
67.48	7.60249
67.7	7.46643
67.92	6.12589
68.14	7.7046
68.36	2.12422
68.58	6.19965
68.8	9.30586
69.02	0.417242
69.24	3.72296
69.46	6.96232
69.68	20.9731
69.9	26.7415
70.12	13.4452
70.34	8.36193
70.56	19.5893
70.78	17.9459
71	12.8557
71.22	6.70642
71.44	13.1485
71.66	7.50225
71.88	10.8526
72.1	1.60124
72.32	14.2463
72.54	21.7274
72.76	19.7183
72.98	12.9152
73.2	14.2946
73.42	11.6158
73.64	17.5323
73.86	7.58361
74.08	1.70008
74.3	8.47651
74.52	7.66747
74.74	13.7156
74.96	10.8452
75.18	4.95407
75.4	1.97072
75.62	15.5278
75.84	12.5243
76.06	0.603912
76.28	14.1233
76.5	8.9536
76.72	13.819
76.94	13.8874
77.16	22.614
77.38	9.88471
77.6	9.13845
77.82	6.23752
78.04	8.71075
78.26	9.90671
78.48	8.91766
78.7	9.64435
78.92	5.61624
79.14	4.41085
79.36	6.26184
79.58	2.66966
79.8	7.44777
80.02	4.36576
80.24	4.7302
80.46	10.4677
80.68	0.761847
80.9	11.7255
81.12	1.02521
81.34	6.31502
81.56	7.63667
81.78	5.71164
82	14.7775
82.22	2.04418
82.44	7.33866
82.66	2.10724
82.88	6.96734
83.1	8.07536
83.32	4.22196
83.54	9.18401
83.76	7.62787
83.98	8.56796
84.2	13.8752
84.42	7.24809
84.64	3.29492
84.86	4.4394
85.08	13.571
85.3	3.87588
85.52	3.99601
85.74	4.26491
85.96	8.27624
86.18	2.7473
86.4	17.6573
86.62	3.21752
86.84	8.30412
87.06	5.95129
87.28	11.707
87.5	5.83008
87.72	4.60095
87.94	8.56373
88.16	12.2705
88.38	5.34836
88.6	0.354198
88.82	1.94458
89.04	5.90635
89.26	13.192
89.48	8.5064
89.7	5.20368
89.92	7.62369
