Measurement: Powder, Xray Data XY Processed
Mineral: Muscovite
Rruff sample: R040108
Ideal chemistry: KAl_2_(Si_3_Al)O_10_(OH)_2_
Locality: USSR
Source: University of Arizona Mineral Museum
Description: Dark green hexagonal tablet
Diffraction sample description: Powder
Measured chemistry: (K_0.96_Na_0.04_)_Σ=1_(Al_1.48_Fe^3+^_0.20_Mg_0.16_Fe^2+^_0.14_Ti_0.02_)_Σ=2_(Si_3.28_Al_0.72_)_Σ=4_O_10_(OH)_2_; OH estimated by charge balance
Cell parameters: a: 5.220(2) b: 9.058(3) c: 19.997(2) alpha: 90. beta: 95.79(1) gamma: 90. volume: 940.9(4) crystal system: monoclinic
x	intensity
5	0
5.22	24.733
5.44	23.7585
5.66	5.69029
5.88	12.8366
6.1	27.4695
6.32	17.966
6.54	4.03999
6.76	8.47666
6.98	6.00505
7.2	8.42524
7.42	5.63404
7.64	14.7225
7.86	1.03599
8.08	13.0054
8.3	0.291452
8.52	12.7428
8.74	66.0882
8.96	801.16
9.18	18.9739
9.4	11.9445
9.62	5.02372
9.84	5.07547
10.06	2.14562
10.28	14.2305
10.5	0.971964
10.72	3.22783
10.94	8.83952
11.16	0.429028
11.38	1.09628
11.6	8.38106
11.82	4.44075
12.04	2.30145
12.26	5.83898
12.48	11.1824
12.7	13.274
12.92	0.400122
13.14	4.57463
13.36	7.2854
13.58	15.4993
13.8	4.52137
14.02	9.50833
14.24	4.37704
14.46	14.2036
14.68	4.44342
14.9	8.27167
15.12	6.08857
15.34	9.07429
15.56	6.27541
15.78	6.1821
16	8.28356
16.22	13.357
16.44	9.26481
16.66	1.85589
16.88	9.62614
17.1	8.43112
17.32	5.51174
17.54	16.5794
17.76	23.7507
17.98	25.6867
18.2	2.18102
18.42	11.8912
18.64	7.67606
18.86	9.58824
19.08	18.6148
19.3	13.5531
19.52	15.4198
19.74	30.98
19.96	22.7358
20.18	19.563
20.4	13.3635
20.62	12.9331
20.84	5.93836
21.06	0.232403
21.28	7.30938
21.5	8.11218
21.72	8.9814
21.94	7.90717
22.16	2.90573
22.38	14.9917
22.6	1.76695
22.82	18.7561
23.04	16.0401
23.26	7.10726
23.48	1.03395
23.7	13.9465
23.92	6.19862
24.14	8.44376
24.36	15.1371
24.58	0.791313
24.8	1.33275
25.02	8.85466
25.24	29.4692
25.46	36.5795
25.68	14.5026
25.9	2.99219
26.12	8.65944
26.34	14.3504
26.56	24.9405
26.78	57.8265
27	270.787
27.22	10.2087
27.44	12.6993
27.66	10.79
27.88	30.3648
28.1	21.0835
28.32	3.6005
28.54	2.54333
28.76	5.14155
28.98	2.26581
29.2	12.4505
29.42	6.91993
29.64	0.298075
29.86	39.2547
30.08	26.0648
30.3	7.5309
30.52	5.165
30.74	12.8764
30.96	5.80537
31.18	27.9135
31.4	42.5021
31.62	21.9121
31.84	12.8382
32.06	31.4746
32.28	18.5578
32.5	20.8528
32.72	1.2607
32.94	1.51104
33.16	11.5142
33.38	9.35064
33.6	9.04306
33.82	7.24516
34.04	13.5016
34.26	5.90724
34.48	17.948
34.7	13.5006
34.92	47.2432
35.14	10.8763
35.36	7.0004
35.58	7.57449
35.8	23.0797
36.02	2.47895
36.24	20.9709
36.46	14.4945
36.68	0.929291
36.9	2.0507
37.12	2.67011
37.34	4.67791
37.56	19.2775
37.78	21.8034
38	4.96542
38.22	2.98954
38.44	1.77902
38.66	5.54654
38.88	13.5568
39.1	13.6253
39.32	10.5308
39.54	6.05705
39.76	12.7222
39.98	12.3306
40.2	5.10133
40.42	8.83025
40.64	1.6482
40.86	14.0755
41.08	5.88401
41.3	12.7202
41.52	10.5355
41.74	3.8451
41.96	17.9866
42.18	12.6125
42.4	29.7478
42.62	5.51089
42.84	8.69694
43.06	4.02037
43.28	17.7287
43.5	25.4935
43.72	13.7673
43.94	11.6807
44.16	12.0786
44.38	6.84639
44.6	0.565044
44.82	16.211
45.04	6.45119
45.26	5.13278
45.48	27.6622
45.7	73.9293
45.92	13.9084
46.14	16.8583
46.36	18.4916
46.58	5.99625
46.8	3.02499
47.02	0.01593
47.24	0.064905
47.46	5.61979
47.68	13.2472
47.9	3.77832
48.12	14.2642
48.34	6.17596
48.56	16.7957
48.78	8.5847
49	16.2927
49.22	0.016167
49.44	2.61532
49.66	1.52626
49.88	3.32896
50.1	0.175186
50.32	5.12938
50.54	7.81988
50.76	6.62349
50.98	10.4379
51.2	4.06483
51.42	13.021
51.64	6.04709
51.86	10.0274
52.08	3.29469
52.3	12.474
52.52	26.4287
52.74	16.4556
52.96	14.47
53.18	4.63375
53.4	9.28072
53.62	3.75466
53.84	4.79434
54.06	0.490795
54.28	20.1465
54.5	5.18806
54.72	6.83815
54.94	4.60292
55.16	12.2138
55.38	18.3024
55.6	11.2489
55.82	26.5016
56.04	20.3645
56.26	7.65482
56.48	5.92138
56.7	11.2008
56.92	2.73023
57.14	2.85695
57.36	14.6892
57.58	21.031
57.8	5.91071
58.02	8.87909
58.24	13.7983
58.46	1.7839
58.68	7.61841
58.9	1.56508
59.12	7.51087
59.34	11.7574
59.56	14.432
59.78	8.88485
60	4.54994
60.22	2.39312
60.44	4.03536
60.66	8.77383
60.88	16.8939
61.1	13.0102
61.32	6.00551
61.54	28.1089
61.76	7.06732
61.98	7.3931
62.2	3.10165
62.42	6.37282
62.64	3.80052
62.86	2.47384
63.08	7.56827
63.3	0.335922
63.52	15.7274
63.74	1.9927
63.96	6.46751
64.18	6.2373
64.4	9.08166
64.62	7.63064
64.84	11.5436
65.06	11.1696
65.28	0.221567
65.5	3.1945
65.72	7.08503
65.94	14.2872
66.16	0.167473
66.38	5.51035
66.6	5.5138
66.82	6.52968
67.04	4.61732
67.26	12.5627
67.48	3.77047
67.7	13.2429
67.92	11.0086
68.14	3.00781
68.36	8.48056
68.58	6.32102
68.8	8.06805
69.02	5.16199
69.24	8.05327
69.46	26.9051
69.68	21.9806
69.9	17.1562
70.12	14.2276
70.34	4.05992
70.56	22.3928
70.78	4.57475
71	3.0048
71.22	8.42118
71.44	10.4159
71.66	6.51431
71.88	16.7911
72.1	3.69088
72.32	2.16055
72.54	11.9403
72.76	3.81215
72.98	12.4438
73.2	20.1188
73.42	1.84438
73.64	8.9771
73.86	9.93705
74.08	10.0922
74.3	5.96412
74.52	11.13
74.74	8.93478
74.96	6.07438
75.18	7.15829
75.4	3.31435
75.62	2.62866
75.84	14.1454
76.06	13.52
76.28	5.0742
76.5	8.54724
76.72	6.54351
76.94	16.6234
77.16	0.629715
77.38	7.45233
77.6	5.77297
77.82	10.0088
78.04	9.16989
78.26	6.21771
78.48	12.6522
78.7	1.58618
78.92	4.12857
79.14	4.06639
79.36	13.9776
79.58	8.48122
79.8	1.78609
80.02	17.533
80.24	2.28185
80.46	7.15493
80.68	4.48496
80.9	6.97355
81.12	1.81764
81.34	10.5723
81.56	10.7123
81.78	8.1721
82	3.20227
82.22	9.86115
82.44	13.8868
82.66	2.1134
82.88	1.20765
83.1	11.8795
83.32	15.9629
83.54	4.90757
83.76	8.1885
83.98	5.14416
84.2	12.9257
84.42	6.17624
84.64	8.59031
84.86	2.05145
85.08	4.00256
85.3	4.52191
85.52	7.90616
85.74	11.1658
85.96	15.2321
86.18	8.97617
86.4	12.9929
86.62	6.89481
86.84	14.5936
87.06	11.4524
87.28	8.03323
87.5	4.70763
87.72	2.52444
87.94	9.10369
88.16	6.16374
88.38	10.2759
88.6	13.6524
88.82	8.62022
89.04	5.9121
89.26	3.28488
89.48	7.74574
89.7	11.106
89.92	6.47977
