Measurement: Powder, Xray Data XY Processed
Mineral: Muscovite
Rruff sample: R061120
Ideal chemistry: KAl_2_(Si_3_Al)O_10_(OH)_2_
Locality: Aracuai City,  Minas Gerais, Brazil
Source: Michael Scott
Description: Lavender prismatic micaceous crystals
Diffraction sample description: Powder
Measured chemistry: (K_0.93_Na_0.07_)_Σ=1_(Al_1.95_Fe^3+^_0.05_)_Σ=2_(Si_3.00_Al_1.00_)O_10_(OH)_2_; = gray phase. OH is estimated by charge balance
Cell parameters: a: 5.1907(5) b: 9.008(1) c: 20.0585(6) alpha: 90 beta: 95.647(5) gamma: 90 volume: 933.4(1) crystal system: monoclinic
x	intensity
5	0
5.22	15.4438
5.44	8.50725
5.66	3.75282
5.88	22.5685
6.1	12.3259
6.32	24.6409
6.54	7.36424
6.76	17.0663
6.98	13.6214
7.2	10.1167
7.42	8.96604
7.64	0.457222
7.86	8.67333
8.08	9.99505
8.3	5.55594
8.52	15.7514
8.74	157.545
8.96	161.039
9.18	14.0075
9.4	10.8359
9.62	8.94258
9.84	3.76084
10.06	0.253386
10.28	7.30759
10.5	13.1754
10.72	5.99208
10.94	10.8804
11.16	6.35885
11.38	10.822
11.6	7.83652
11.82	6.3138
12.04	0.401586
12.26	6.46444
12.48	6.49624
12.7	11.0283
12.92	2.02069
13.14	6.9503
13.36	6.99158
13.58	6.17955
13.8	3.11282
14.02	10.0525
14.24	3.59829
14.46	10.376
14.68	7.17528
14.9	2.88724
15.12	2.59082
15.34	3.63528
15.56	6.3853
15.78	10.6602
16	14.3132
16.22	14.8495
16.44	12.2222
16.66	1.84982
16.88	10.291
17.1	0.046698
17.32	9.87611
17.54	9.74233
17.76	429.595
17.98	31.407
18.2	2.79913
18.42	6.51401
18.64	9.70414
18.86	5.97779
19.08	10.5252
19.3	10.9275
19.52	6.16169
19.74	16.2659
19.96	19.5808
20.18	8.71781
20.4	22.0758
20.62	10.6268
20.84	2.62526
21.06	0.116438
21.28	3.93035
21.5	2.79346
21.72	1.75724
21.94	2.22544
22.16	3.03313
22.38	6.08222
22.6	0.683159
22.82	14.0052
23.04	7.99748
23.26	2.75638
23.48	4.40463
23.7	13.3859
23.92	13.1536
24.14	17.9315
24.36	2.41789
24.58	1.53733
24.8	7.55133
25.02	1.46457
25.24	11.7106
25.46	12.694
25.68	10.4548
25.9	3.49755
26.12	7.64876
26.34	11.0478
26.56	30.3125
26.78	636.816
27	59.8212
27.22	3.79853
27.44	3.02382
27.66	9.12404
27.88	36.3977
28.1	7.40161
28.32	3.85395
28.54	5.37445
28.76	7.3443
28.98	9.55447
29.2	6.1757
29.42	5.95921
29.64	5.50601
29.86	42.3479
30.08	15.1864
30.3	8.15225
30.52	9.5869
30.74	1.31166
30.96	9.31766
31.18	19.3447
31.4	11.876
31.62	9.15559
31.84	2.7243
32.06	20.3694
32.28	15.672
32.5	11.0077
32.72	6.30384
32.94	4.85648
33.16	10.2529
33.38	6.44173
33.6	12.5795
33.82	5.16678
34.04	0.043283
34.26	2.28945
34.48	0.601183
34.7	16.4696
34.92	25.3821
35.14	18.4998
35.36	10.4859
35.58	4.50866
35.8	17.1314
36.02	68.0459
36.24	12.4849
36.46	7.96309
36.68	1.46728
36.9	9.62536
37.12	7.36535
37.34	10.8966
37.56	10.2965
37.78	14.584
38	2.43483
38.22	12.8511
38.44	0.390599
38.66	5.44643
38.88	2.33523
39.1	6.17765
39.32	7.08339
39.54	17.571
39.76	12.4239
39.98	3.10926
40.2	14.8572
40.42	6.80715
40.64	0.355398
40.86	6.97715
41.08	10.1466
41.3	5.14809
41.52	6.15652
41.74	13.187
41.96	6.65376
42.18	18.3911
42.4	16.2716
42.62	15.1228
42.84	5.94832
43.06	1.30552
43.28	4.49183
43.5	6.09149
43.72	6.80697
43.94	20.3775
44.16	2.69735
44.38	5.10675
44.6	6.64389
44.82	2.37728
45.04	10.9438
45.26	139.064
45.48	268.038
45.7	67.2181
45.92	16.5753
46.14	9.66065
46.36	4.59413
46.58	8.47483
46.8	16.5885
47.02	5.42005
47.24	11.3576
47.46	3.16649
47.68	3.75567
47.9	4.05065
48.12	2.50495
48.34	2.93768
48.56	8.82583
48.78	1.01619
49	0.619003
49.22	12.4637
49.44	16.563
49.66	7.69328
49.88	11.8896
50.1	11.9002
50.32	9.45912
50.54	13.3843
50.76	6.22572
50.98	0.089014
51.2	3.68664
51.42	7.40025
51.64	0.972847
51.86	10.7915
52.08	5.93543
52.3	7.72689
52.52	0.117595
52.74	12.051
52.96	9.21301
53.18	11.2891
53.4	5.58143
53.62	6.55323
53.84	5.30089
54.06	5.27485
54.28	4.11573
54.5	0.328102
54.72	7.43045
54.94	14.8474
55.16	7.9267
55.38	4.68041
55.6	8.92538
55.82	11.2636
56.04	10.424
56.26	9.69906
56.48	1.00628
56.7	6.46872
56.92	5.99608
57.14	4.35038
57.36	6.66695
57.58	10.099
57.8	1.72847
58.02	3.54281
58.24	0.790998
58.46	9.62808
58.68	3.67978
58.9	5.77764
59.12	3.6408
59.34	11.296
59.56	5.16116
59.78	0.641796
60	4.60492
60.22	0.273506
60.44	4.77524
60.66	10.4589
60.88	5.13527
61.1	9.94304
61.32	1.7996
61.54	7.75691
61.76	5.63772
61.98	13.8758
62.2	6.05682
62.42	2.81347
62.64	5.34797
62.86	3.52729
63.08	9.72758
63.3	13.7818
63.52	7.90844
63.74	7.49731
63.96	5.63146
64.18	3.64129
64.4	2.58304
64.62	5.49835
64.84	2.61373
65.06	17.6918
65.28	18.271
65.5	16.5866
65.72	1.65246
65.94	10.5843
66.16	9.32173
66.38	11.4407
66.6	6.5344
66.82	4.69056
67.04	3.93083
67.26	11.0304
67.48	7.71215
67.7	6.48923
67.92	7.2767
68.14	14.0438
68.36	1.69313
68.58	5.39251
68.8	3.13952
69.02	10.7382
69.24	16.4655
69.46	10.0046
69.68	16.1618
69.9	11.1176
70.12	2.1414
70.34	14.0453
70.56	4.25719
70.78	1.54423
71	1.67998
71.22	0.838435
71.44	7.24783
71.66	3.44889
71.88	2.63434
72.1	4.39805
72.32	5.66658
72.54	0.10323
72.76	8.95946
72.98	12.1947
73.2	0.198894
73.42	9.4644
73.64	8.49819
73.86	8.44306
74.08	10.7125
74.3	6.68586
74.52	4.58713
74.74	0.311133
74.96	4.22345
75.18	9.19431
75.4	0.063939
75.62	6.89309
75.84	9.07237
76.06	14.0975
76.28	18.3006
76.5	17.4376
76.72	4.63176
76.94	3.94729
77.16	1.12927
77.38	7.97235
77.6	1.83497
77.82	6.27196
78.04	5.27899
78.26	6.00565
78.48	7.16688
78.7	6.89097
78.92	3.87232
79.14	8.86359
79.36	3.02811
79.58	14.0803
79.8	3.24855
80.02	15.2832
80.24	2.30558
80.46	5.76938
80.68	2.79354
80.9	9.78733
81.12	4.79274
81.34	7.64703
81.56	4.64975
81.78	7.39606
82	2.36868
82.22	4.30922
82.44	8.30714
82.66	6.43759
82.88	10.1221
83.1	10.2494
83.32	15.2888
83.54	9.49864
83.76	3.47692
83.98	3.52707
84.2	3.66358
84.42	0.59929
84.64	4.56977
84.86	6.50636
85.08	0.450724
85.3	3.28531
85.52	7.21888
85.74	4.00655
85.96	12.8439
86.18	6.10456
86.4	10.2671
86.62	1.06238
86.84	11.1576
87.06	3.26272
87.28	4.40433
87.5	3.407
87.72	12.5239
87.94	6.75837
88.16	7.99268
88.38	10.4132
88.6	8.29031
88.82	10.0768
89.04	4.29941
89.26	3.40811
89.48	4.85333
89.7	14.6197
89.92	4.94973
