Measurement: Powder, Xray Data XY Processed
Mineral: Namansilite
Rruff sample: R070006
Ideal chemistry: NaMn^3+^Si_2_O_6_
Locality: Hoskins mine, near Grenfell, New South Wales, Australia
Source: Marcus Origlieri
Description: Dark red granular, associated with ungarettiite, R050244
Diffraction sample description: Single crystal, powder profile is calculated
Measured chemistry: Na_1.00_(Mn^3+^_0.91_Fe^3+^_0.09_)_Î£=1_Si_2.00_O_6_; trace amounts of Cr and Al
Cell parameters: a: 9.49(1) b: 8.59(1) c: 5.321(5) alpha: 90 beta: 105.24(5) gamma: 90 volume: 418.2(5) crystal system: monoclinic
x	intensity
5	0
5.22	0
5.44	0
5.66	0
5.88	0
6.1	0
6.32	0
6.54	0
6.76	0
6.98	0
7.2	0
7.42	0
7.64	0
7.86	0
8.08	0
8.3	0
8.52	0
8.74	0
8.96	0
9.18	0
9.4	0
9.62	0
9.84	0
10.06	0
10.28	0
10.5	0
10.72	0
10.94	0
11.16	0
11.38	0
11.6	0
11.82	0
12.04	0
12.26	0
12.48	0
12.7	0
12.92	0
13.14	0
13.36	0
13.58	0
13.8	0
14.02	4.451
14.24	0.001
14.46	0
14.68	0
14.9	0
15.12	0
15.34	0
15.56	0
15.78	0
16	0
16.22	0
16.44	0
16.66	0
16.88	0
17.1	0
17.32	0
17.54	0
17.76	0
17.98	0
18.2	0
18.42	0
18.64	0
18.86	0
19.08	0
19.3	3.792
19.52	0
19.74	0
19.96	0
20.18	18.118
20.4	0
20.62	23.315
20.84	0
21.06	0
21.28	0
21.5	0
21.72	0
21.94	0
22.16	0
22.38	0
22.6	0
22.82	0
23.04	0
23.26	0
23.48	0
23.7	0
23.92	0
24.14	11.457
24.36	0
24.58	0
24.8	0
25.02	0
25.24	0
25.46	0
25.68	0
25.9	0
26.12	0
26.34	0
26.56	0
26.78	0
27	0.206
27.22	0
27.44	0
27.66	0
27.88	0
28.1	0
28.32	0.657
28.54	0.017
28.76	0
28.98	0
29.2	0
29.42	0
29.64	0
29.86	0
30.08	0
30.3	0
30.52	96.924
30.74	0
30.96	45.532
31.18	0.006
31.4	0
31.62	3.821
31.84	0
32.06	0
32.28	0
32.5	0
32.72	0.391
32.94	0
33.16	0
33.38	0
33.6	0
33.82	0
34.04	0
34.26	0
34.48	0
34.7	48.308
34.92	0
35.14	2.009
35.36	0
35.58	0
35.8	18.252
36.02	21.122
36.24	0
36.46	0
36.68	0
36.9	0
37.12	0
37.34	0
37.56	0
37.78	0
38	0
38.22	0.054
38.44	0.44
38.66	0
38.88	0
39.1	0.001
39.32	3.753
39.54	0
39.76	0
39.98	19.274
40.2	0.062
40.42	0
40.64	0.752
40.86	0.174
41.08	0.011
41.3	0
41.52	0
41.74	0
41.96	0.13
42.18	0
42.4	0
42.62	0
42.84	0
43.06	0.097
43.28	1.075
43.5	0.769
43.72	6.835
43.94	0.05
44.16	5.032
44.38	0.305
44.6	2.337
44.82	0.012
45.04	0
45.26	0
45.48	5.399
45.7	3.381
45.92	0
46.14	0
46.36	0.419
46.58	0.11
46.8	0
47.02	0
47.24	0
47.46	0
47.68	0
47.9	3.618
48.12	1.022
48.34	0
48.56	0
48.78	0
49	0
49.22	2.841
49.44	0.431
49.66	0.102
49.88	1.573
50.1	0
50.32	1.719
50.54	0.822
50.76	0.642
50.98	0.415
51.2	0
51.42	0
51.64	0
51.86	2.518
52.08	3.059
52.3	0.422
52.52	0.129
52.74	0
52.96	0.322
53.18	2.344
53.4	0
53.62	0
53.84	0
54.06	8.264
54.28	1.074
54.5	0
54.72	0
54.94	0.463
55.16	0.002
55.38	0.156
55.6	2.377
55.82	0.001
56.04	13.644
56.26	3.858
56.48	0.061
56.7	0
56.92	0
57.14	0
57.36	0
57.58	0.275
57.8	0.019
58.02	0.23
58.24	2.333
58.46	7.82
58.68	4.485
58.9	2.4
59.12	0
59.34	0
59.56	0
59.78	0.029
60	0
60.22	0
60.44	5.639
60.66	2.582
60.88	0
61.1	0.045
61.32	0.997
61.54	0.001
61.76	2.757
61.98	2.07
62.2	0.155
62.42	1.66
62.64	0.137
62.86	0.015
63.08	0
63.3	0.004
63.52	0.889
63.74	0.113
63.96	0
64.18	0.824
64.4	0.524
64.62	3.287
64.84	5.854
65.06	1.408
65.28	0.002
65.5	0
65.72	0
65.94	0.169
66.16	0.199
66.38	1.687
66.6	0.114
66.82	3.035
67.04	0.44
67.26	0.044
67.48	1.421
67.7	0.633
67.92	1.447
68.14	2.24
68.36	0.01
68.58	0.223
68.8	0.012
69.02	0
69.24	0
69.46	0.141
69.68	0.08
69.9	0.098
70.12	0.219
70.34	0.186
70.56	0.019
70.78	0
71	0.014
71.22	0.028
71.44	0.001
71.66	0
71.88	0.015
72.1	1.173
72.32	3.52
72.54	9.677
72.76	4.182
72.98	0.069
73.2	4.029
73.42	1.908
73.64	0
73.86	0
74.08	0.248
74.3	0.33
74.52	0.098
74.74	0.029
74.96	0.012
75.18	0
75.4	0
75.62	3.01
75.84	1.583
76.06	0.066
76.28	0.694
76.5	0.343
76.72	0
76.94	0.312
77.16	0.135
77.38	5.2
77.6	2.311
77.82	0.121
78.04	0.071
78.26	0.429
78.48	0.822
78.7	0.343
78.92	0.063
79.14	0.024
79.36	0.001
79.58	0
79.8	0.012
80.02	0.329
80.24	0.094
80.46	0.076
80.68	0.062
80.9	0.117
81.12	0.286
81.34	0.08
81.56	1.178
81.78	0.301
82	0.496
82.22	0.196
82.44	0.115
82.66	0.439
82.88	0.267
83.1	0
83.32	0.039
83.54	0.003
83.76	0.001
83.98	0
84.2	0.046
84.42	0.622
84.64	0.107
84.86	0.118
85.08	0.011
85.3	0.235
85.52	0.086
85.74	0.053
85.96	0.001
86.18	0.057
86.4	0.024
86.62	0.031
86.84	0.003
87.06	0.038
87.28	0.043
87.5	0.04
87.72	0.136
87.94	0.148
88.16	0.171
88.38	0.13
88.6	0.025
88.82	0.029
89.04	0.391
89.26	0.318
89.48	0.004
89.7	0.001
89.92	0.013
