Measurement: Powder, Xray Data XY Processed
Mineral: Narsarsukite
Rruff sample: R060203
Ideal chemistry: Na_2_(Ti^4+^,Fe^3+^)Si_4_(O,F)_11_
Locality: Poudrette Quarry, Mont Saint-Hilaire, Rouville County, Quebec, Canada
Source: Royal Ontario Museum
Description: Light tan colored transparent fragment
Diffraction sample description: Single crystal, powder profile is calculated
Measured chemistry: (Na_1.24_[box]_0.76_)_Σ=2_(Ti_0.76_Fe^3+^_0.20_Al_0.04_)_Σ=1_Si_4.00_(O_10.00_F_1.00_)_Σ=11_ ; trace amounts of Zr and  K
Cell parameters: a: 10.7123(14) b: 10.7123(14) c: 7.9419(5) alpha: 90 beta: 90 gamma: 90 volume: 911.4(3) crystal system: tetragonal
x	intensity
5	0
5.22	0
5.44	0
5.66	0
5.88	0
6.1	0
6.32	0
6.54	0
6.76	0
6.98	0
7.2	0
7.42	0
7.64	0
7.86	0
8.08	0
8.3	0
8.52	0
8.74	0
8.96	0
9.18	0
9.4	0
9.62	0
9.84	0
10.06	0
10.28	0
10.5	0
10.72	0
10.94	0
11.16	0
11.38	0
11.6	0.182
11.82	0
12.04	0
12.26	0
12.48	0
12.7	0
12.92	0
13.14	0
13.36	0
13.58	0
13.8	0.029
14.02	0
14.24	0
14.46	0
14.68	0
14.9	0
15.12	0
15.34	0
15.56	0
15.78	0
16	0
16.22	0
16.44	0.209
16.66	0.58
16.88	0
17.1	0
17.32	0
17.54	0
17.76	0
17.98	0
18.2	0
18.42	0
18.64	0
18.86	0
19.08	0
19.3	0
19.52	0
19.74	0
19.96	0
20.18	0
20.4	0
20.62	0
20.84	0
21.06	0
21.28	0
21.5	0
21.72	8.555
21.94	0
22.16	0
22.38	83.586
22.6	0
22.82	0
23.04	0
23.26	0
23.48	33.926
23.7	0
23.92	0
24.14	0
24.36	0
24.58	0
24.8	0
25.02	0
25.24	0.008
25.46	0
25.68	0
25.9	0
26.12	0
26.34	42.187
26.56	0
26.78	0
27	0
27.22	0.001
27.44	41.28
27.66	0
27.88	3.048
28.1	0.408
28.32	0
28.54	0
28.76	0
28.98	0
29.2	0
29.42	0
29.64	0
29.86	0
30.08	0
30.3	0
30.52	0
30.74	0
30.96	0
31.18	0
31.4	0
31.62	0
31.84	0
32.06	0.02
32.28	0.044
32.5	0
32.72	5.318
32.94	0
33.16	0
33.38	1.673
33.6	0.089
33.82	0
34.04	0
34.26	0
34.48	0
34.7	1.766
34.92	10.057
35.14	0
35.36	0
35.58	21.973
35.8	0
36.02	0
36.24	0.002
36.46	0.517
36.68	0
36.9	0
37.12	0
37.34	0
37.56	3.647
37.78	0
38	0
38.22	0
38.44	0
38.66	0
38.88	6.768
39.1	0
39.32	0
39.54	0
39.76	0
39.98	0
40.2	0
40.42	0
40.64	2.298
40.86	0
41.08	0
41.3	0
41.52	0
41.74	0
41.96	0
42.18	0
42.4	0.139
42.62	0.4
42.84	0
43.06	2.426
43.28	0
43.5	0
43.72	3.533
43.94	0.019
44.16	4.405
44.38	0
44.6	0
44.82	0
45.04	0
45.26	0
45.48	0
45.7	7.806
45.92	8.08
46.14	0.001
46.36	0
46.58	0
46.8	0
47.02	4.363
47.24	3.093
47.46	1.553
47.68	0
47.9	0.063
48.12	4.079
48.34	0
48.56	0
48.78	0.026
49	5.633
49.22	0.281
49.44	0
49.66	0.278
49.88	0
50.1	0
50.32	0
50.54	0
50.76	0
50.98	0.004
51.2	3.279
51.42	0
51.64	0
51.86	0.001
52.08	0.029
52.3	0
52.52	0
52.74	0
52.96	0
53.18	1.149
53.4	2.61
53.62	2.281
53.84	0.003
54.06	3.294
54.28	2.499
54.5	0
54.72	0
54.94	0.05
55.16	4.917
55.38	0.008
55.6	0
55.82	0
56.04	0.01
56.26	0.197
56.48	3.339
56.7	0.132
56.92	0
57.14	0
57.36	0
57.58	0
57.8	0.843
58.02	0.915
58.24	0.002
58.46	0
58.68	0.067
58.9	1.939
59.12	5.851
59.34	2.47
59.56	0.003
59.78	0
60	0
60.22	0
60.44	0.3
60.66	1.496
60.88	0
61.1	5.288
61.32	2.665
61.54	0.308
61.76	0.086
61.98	0.001
62.2	0
62.42	2.425
62.64	3.257
62.86	0
63.08	0
63.3	0.09
63.52	0.377
63.74	0
63.96	0.001
64.18	3.274
64.4	0.286
64.62	0.297
64.84	0.003
65.06	0
65.28	0
65.5	0
65.72	0
65.94	2.548
66.16	2.012
66.38	5.664
66.6	4.151
66.82	0.08
67.04	0.002
67.26	7.53
67.48	1.539
67.7	0
67.92	0
68.14	0
68.36	0.661
68.58	4.157
68.8	1.284
69.02	0
69.24	0.14
69.46	0.279
69.68	1.564
69.9	0.576
70.12	0
70.34	0.002
70.56	0
70.78	0.001
71	6.731
71.22	4.903
71.44	0.099
71.66	0
71.88	0.004
72.1	0.031
72.32	0.05
72.54	0.068
72.76	1.184
72.98	0.482
73.2	0
73.42	3.722
73.64	2.259
73.86	0.203
74.08	0
74.3	2.408
74.52	1.1
74.74	0.187
74.96	0.096
75.18	1.394
75.4	0.703
75.62	0
75.84	0
76.06	0.474
76.28	0.213
76.5	0.474
76.72	6.538
76.94	3.212
77.16	0.734
77.38	0.535
77.6	0.164
77.82	0
78.04	0
78.26	0
78.48	0.165
78.7	0.083
78.92	0
79.14	0
79.36	0.001
79.58	0.944
79.8	0.66
80.02	0.021
80.24	0.006
80.46	0
80.68	1.641
80.9	2.499
81.12	1.342
81.34	0.028
81.56	0.665
81.78	0.393
82	0.054
82.22	0.37
82.44	0.488
82.66	0
82.88	0
83.1	0
83.32	0.624
83.54	0.125
83.76	0
83.98	0.734
84.2	0.778
84.42	0.517
84.64	0.334
84.86	0
85.08	0
85.3	0
85.52	0.551
85.74	0.046
85.96	0.97
86.18	0.095
86.4	0.676
86.62	1.779
86.84	0.519
87.06	0.013
87.28	0.065
87.5	0
87.72	0
87.94	0.002
88.16	0.004
88.38	0.006
88.6	0.308
88.82	0.046
89.04	0.227
89.26	0
89.48	0
89.7	0
89.92	0
