Measurement: Powder, Xray Data XY Processed
Mineral: Natrodufrenite
Rruff sample: R070599
Ideal chemistry: NaFe^2+^Fe^3+^_5_(PO_4_)_4_(OH)_6_2H_2_O
Locality: Hout Bay, Cape of Good Hope Province, South Africa
Source: James Shigley
Description: Sheaflike, dark brown to red-brown aggregates
Diffraction sample description: Powder
Measured chemistry: (Na_0.62_[box]_0.19_Mn_0.10_Ca_0.09_)_Σ=1_Fe^2+^_1.00_(Fe^3+^_4.95_Al_0.05_)_Σ=5_(P_1.00_O_4_)_4_((OH)_4.76_F_0.24_)_Σ=6_·2H_2_O ; H not measured but estimated by difference and charge balance
Cell parameters: a: 25.875(2) b: 5.1461(4) c: 13.830(1) alpha: 90 beta: 111.07(1) gamma: 90 volume: 1718.6(2) crystal system: monoclinic
x	intensity
5	0
5.22	30.166
5.44	4.70441
5.66	11.7743
5.88	1.82023
6.1	34.1201
6.32	11.7752
6.54	20.0657
6.76	10.4369
6.98	11.511
7.2	24.5169
7.42	28.8671
7.64	26.5719
7.86	13.1853
8.08	29.519
8.3	31.1132
8.52	17.3305
8.74	18.0923
8.96	22.3712
9.18	32.9298
9.4	25.0151
9.62	4.33281
9.84	25.7484
10.06	4.85466
10.28	17.1712
10.5	9.97192
10.72	2.75277
10.94	26.4148
11.16	16.396
11.38	1.8153
11.6	19.0317
11.82	3.48711
12.04	11.9126
12.26	0.895345
12.48	26.0032
12.7	33.3969
12.92	13.6123
13.14	24.7368
13.36	9.75089
13.58	11.1644
13.8	49.2891
14.02	0.625429
14.24	2.12009
14.46	7.46521
14.68	8.99096
14.9	12.8009
15.12	1.47726
15.34	41.3116
15.56	11.8756
15.78	2.55055
16	40.4406
16.22	25.2444
16.44	27.8096
16.66	24.3684
16.88	15.2743
17.1	33.9065
17.32	28.4631
17.54	29.3524
17.76	88.1645
17.98	13.6789
18.2	12.9477
18.42	12.1486
18.64	27.896
18.86	13.0152
19.08	19.4093
19.3	5.57954
19.52	13.4855
19.74	5.70764
19.96	18.5771
20.18	31.0258
20.4	8.13983
20.62	3.62656
20.84	18.6137
21.06	18.4213
21.28	37.2348
21.5	18.9306
21.72	26.3536
21.94	1.13376
22.16	5.02561
22.38	16.5831
22.6	18.3936
22.82	32.1396
23.04	8.4477
23.26	2.86615
23.48	27.4666
23.7	21.2483
23.92	16.3612
24.14	17.2174
24.36	20.4629
24.58	16.2983
24.8	12.1225
25.02	6.49591
25.24	21.8899
25.46	4.02405
25.68	0.119304
25.9	25.7667
26.12	61.1213
26.34	2.8502
26.56	11.5366
26.78	29.9762
27	2.1406
27.22	0.248605
27.44	24.0106
27.66	147.753
27.88	31.0024
28.1	53.9613
28.32	39.9966
28.54	8.84887
28.76	7.36542
28.98	21.5609
29.2	6.8263
29.42	10.1082
29.64	22.9414
29.86	29.3015
30.08	42.5074
30.3	22.1727
30.52	43.9064
30.74	10.5761
30.96	32.5774
31.18	89.3226
31.4	16.1283
31.62	22.461
31.84	8.91434
32.06	0.325089
32.28	1.66435
32.5	34.5336
32.72	29.9081
32.94	15.173
33.16	23.1641
33.38	29.5536
33.6	22.1262
33.82	10.8367
34.04	16.5467
34.26	20.2163
34.48	28.0566
34.7	24.7176
34.92	9.56603
35.14	30.7381
35.36	28.4018
35.58	6.20297
35.8	14.6108
36.02	54.5869
36.24	10.0304
36.46	15.7861
36.68	21.4861
36.9	12.5705
37.12	17.5263
37.34	27.4181
37.56	21.4802
37.78	3.92461
38	25.5779
38.22	2.30957
38.44	42.6
38.66	8.90828
38.88	11.7186
39.1	21.1654
39.32	17.564
39.54	18.5345
39.76	36.2622
39.98	0.699282
40.2	31.7242
40.42	6.13713
40.64	9.3149
40.86	32.032
41.08	14.1714
41.3	31.5644
41.52	33.456
41.74	38.7916
41.96	60.5146
42.18	17.9388
42.4	36.2441
42.62	38.3031
42.84	33.6229
43.06	41.0917
43.28	22.9515
43.5	46.7841
43.72	1.72305
43.94	3.05375
44.16	23.7313
44.38	35.1394
44.6	36.7645
44.82	20.1317
45.04	10.8233
45.26	12.3578
45.48	18.1532
45.7	11.3291
45.92	3.71533
46.14	30.2717
46.36	10.8415
46.58	50.2712
46.8	19.8988
47.02	4.51428
47.24	12.1007
47.46	15.9259
47.68	22.7191
47.9	25.859
48.12	34.2814
48.34	19.8007
48.56	23.4962
48.78	22.8049
49	23.3781
49.22	29.7339
49.44	2.41165
49.66	0.984161
49.88	10.7864
50.1	1.21188
50.32	39.4991
50.54	29.033
50.76	15.7873
50.98	20.3367
51.2	3.55939
51.42	20.4558
51.64	9.44985
51.86	27.1308
52.08	22.4968
52.3	22.3766
52.52	7.75226
52.74	1.97107
52.96	19.2925
53.18	19.4079
53.4	7.57436
53.62	4.61184
53.84	16.84
54.06	1.32751
54.28	3.29524
54.5	10.5784
54.72	16.4791
54.94	9.82433
55.16	22.5893
55.38	21.94
55.6	17.3363
55.82	47.4035
56.04	3.26664
56.26	2.00686
56.48	36.0071
56.7	10.6054
56.92	24.0962
57.14	28.7296
57.36	4.82396
57.58	9.48879
57.8	1.03905
58.02	21.8875
58.24	6.46435
58.46	28.4843
58.68	19.5728
58.9	5.67537
59.12	31.49
59.34	4.86693
59.56	19.6721
59.78	7.53339
60	29.5022
60.22	9.26793
60.44	42.8268
60.66	11.5786
60.88	48.1114
61.1	4.24535
61.32	1.79104
61.54	0.031301
61.76	31.2712
61.98	10.4137
62.2	48.6415
62.42	22.2815
62.64	8.32043
62.86	3.04429
63.08	12.4296
63.3	13.5185
63.52	17.6767
63.74	10.2447
63.96	12.3256
64.18	17.8303
64.4	26.0909
64.62	36.0226
64.84	20.3425
65.06	1.66624
65.28	27.3827
65.5	10.5212
65.72	11.9144
65.94	5.02352
66.16	2.43562
66.38	13.2356
66.6	2.19685
66.82	30.8562
67.04	34.0043
67.26	1.8475
67.48	15.8866
67.7	20.2682
67.92	3.4738
68.14	12.5334
68.36	18.0806
68.58	21.5356
68.8	21.6947
69.02	19.3934
69.24	8.73953
69.46	12.7183
69.68	38.9505
69.9	11.4066
70.12	5.02053
70.34	7.69536
70.56	30.6255
70.78	1.94407
71	12.4913
71.22	28.5846
71.44	36.2538
71.66	26.9411
71.88	24.2539
72.1	27.3405
72.32	10.876
72.54	27.8179
72.76	10.2131
72.98	9.05884
73.2	17.6523
73.42	19.2842
73.64	11.0252
73.86	15.7694
74.08	30.1521
74.3	4.42657
74.52	24.6883
74.74	9.31411
74.96	22.9971
75.18	39.7446
75.4	0.547039
75.62	23.7387
75.84	32.7154
76.06	2.08841
76.28	13.0296
76.5	28.4995
76.72	5.12075
76.94	2.33527
77.16	0.76294
77.38	22.1164
77.6	20.8028
77.82	9.85844
78.04	28.3791
78.26	30.4108
78.48	30.9609
78.7	15.6168
78.92	21.7104
79.14	14.5554
79.36	0.197476
79.58	13.8258
79.8	21.7265
80.02	12.628
80.24	25.2989
80.46	3.6071
80.68	12.9183
80.9	15.7933
81.12	23.8959
81.34	0.581503
81.56	8.32107
81.78	13.3796
82	25.9699
82.22	18.475
82.44	31.5106
82.66	13.2089
82.88	1.20121
83.1	7.76439
83.32	16.0443
83.54	26.101
83.76	32.7226
83.98	16.4497
84.2	32.9473
84.42	28.8854
84.64	22.7312
84.86	14.1487
85.08	5.82663
85.3	0.019459
85.52	19.3373
85.74	5.53403
85.96	41.4367
86.18	10.1335
86.4	34.8849
86.62	11.9315
86.84	10.7936
87.06	0.28721
87.28	8.58316
87.5	23.4022
87.72	29.3631
87.94	12.2825
88.16	15.4361
88.38	26.4346
88.6	28.5167
88.82	28.6957
89.04	9.51528
89.26	4.73297
89.48	42.2927
89.7	16.951
89.92	19.4203
