Measurement: Powder, Xray Data XY Processed
Mineral: Natrolite
Rruff sample: R040102
Ideal chemistry: Na_2_(Si_3_Al_2_)O_10_2H_2_O
Locality: Ross' Quarry, Northland, New Zealand
Source: University of Arizona Mineral Museum
Description: Mass of colorless acicular crystals
Diffraction sample description: Powder
Measured chemistry: (Na_0.92_Ca_0.02_)_2_(Si_3.03_Al_1.99_)O_10_Â·2H_2_O
Cell parameters: a: 18.3084(8) b: 18.6218(7) c: 6.5900(2) alpha: 90. beta: 90. gamma: 90. volume: 2246.7(1) crystal system: orthorhombic
x	intensity
5	0
5.22	13.111
5.44	13.852
5.66	3.161
5.88	13.761
6.1	0.528
6.32	6.191
6.54	9.609
6.76	11.451
6.98	11.38
7.2	3.982
7.42	11.692
7.64	2.058
7.86	0.405
8.08	1.949
8.3	3.355
8.52	9.795
8.74	12.08
8.96	6.587
9.18	6.962
9.4	7.826
9.62	5.106
9.84	3.245
10.06	2.452
10.28	1.546
10.5	3.431
10.72	10.591
10.94	7.579
11.16	5.455
11.38	5.274
11.6	9.394
11.82	5.511
12.04	12.176
12.26	13.754
12.48	5.385
12.7	10.02
12.92	0.706
13.14	11.177
13.36	11.275
13.58	675.966
13.8	9.367
14.02	1.267
14.24	13.404
14.46	0.443
14.68	7.722
14.9	10.907
15.12	774.293
15.34	12.693
15.56	7.008
15.78	4.139
16	2.255
16.22	5.792
16.44	1.295
16.66	7.858
16.88	12.312
17.1	6.578
17.32	3.479
17.54	9.524
17.76	3.213
17.98	4.882
18.2	6.425
18.42	16.85
18.64	1.3
18.86	16.576
19.08	199.479
19.3	17.786
19.52	41.81
19.74	2.601
19.96	5.928
20.18	27.68
20.4	263.602
20.62	12.683
20.84	7.918
21.06	4.005
21.28	2.884
21.5	194.597
21.72	117.292
21.94	6.059
22.16	9.678
22.38	3.919
22.6	2.504
22.82	1.988
23.04	13.412
23.26	8.683
23.48	7.985
23.7	4
23.92	12.098
24.14	3.012
24.36	0.357
24.58	16.541
24.8	7.643
25.02	5.508
25.24	10.595
25.46	11.568
25.68	9.793
25.9	8.305
26.12	7.337
26.34	10.739
26.56	13.376
26.78	2.026
27	8.412
27.22	7.685
27.44	33.141
27.66	5.395
27.88	30.83
28.1	44.004
28.32	288.721
28.54	4.746
28.76	118.378
28.98	10.131
29.2	0.994
29.42	4.897
29.64	3.248
29.86	13.469
30.08	3.083
30.3	11.646
30.52	106.246
30.74	6.426
30.96	24.385
31.18	80.076
31.4	210.426
31.62	38.567
31.84	17.997
32.06	3.527
32.28	19.393
32.5	0.82
32.72	4.677
32.94	12.395
33.16	6.217
33.38	3.853
33.6	5.901
33.82	5.99
34.04	1.472
34.26	8.571
34.48	4.016
34.7	14.235
34.92	104.129
35.14	19.706
35.36	4.762
35.58	6.586
35.8	5.61
36.02	5.672
36.24	12.744
36.46	0.06
36.68	17.321
36.9	52.698
37.12	15.834
37.34	89.031
37.56	13.163
37.78	0.789
38	2.428
38.22	6.405
38.44	8.416
38.66	12.53
38.88	43.294
39.1	9.193
39.32	18.381
39.54	7.866
39.76	6.922
39.98	35.711
40.2	1.425
40.42	10.311
40.64	17.366
40.86	3.421
41.08	11.417
41.3	40.063
41.52	70.338
41.74	4.762
41.96	9.131
42.18	5.394
42.4	1.038
42.62	2.245
42.84	5.512
43.06	9.67
43.28	3.739
43.5	1.829
43.72	7.743
43.94	11.414
44.16	16.33
44.38	3.224
44.6	1.934
44.82	9.955
45.04	10.183
45.26	6.182
45.48	6.323
45.7	4.512
45.92	6.549
46.14	10.202
46.36	20.433
46.58	7.333
46.8	16.51
47.02	11.275
47.24	9.611
47.46	1.081
47.68	0.645
47.9	4.843
48.12	7.489
48.34	19.119
48.56	34.64
48.78	6.915
49	5.473
49.22	3.082
49.44	8.72
49.66	2.66
49.88	2.665
50.1	32.781
50.32	1.314
50.54	29.82
50.76	48.575
50.98	24.804
51.2	1.925
51.42	7.156
51.64	1.032
51.86	2.275
52.08	43.266
52.3	5.412
52.52	14.379
52.74	10.245
52.96	13.588
53.18	34.793
53.4	0.035
53.62	7.248
53.84	55.663
54.06	10.161
54.28	4.6
54.5	3.845
54.72	4.727
54.94	0.505
55.16	6.351
55.38	3.962
55.6	10.942
55.82	28.298
56.04	6.001
56.26	3.21
56.48	11.223
56.7	14.441
56.92	27.48
57.14	10.358
57.36	17.632
57.58	20.741
57.8	1.135
58.02	8.679
58.24	11.629
58.46	12.103
58.68	16.5
58.9	11.507
59.12	6.043
59.34	2.24
59.56	6.41
59.78	2.709
60	3.933
60.22	8.124
60.44	14.23
60.66	21.935
60.88	1.941
61.1	9.588
61.32	4.434
61.54	3.664
61.76	12.673
61.98	4.952
62.2	0.859
62.42	8.693
62.64	3.654
62.86	0.389
63.08	5.506
63.3	14.977
63.52	12.94
63.74	23.903
63.96	9.763
64.18	15.729
64.4	10.026
64.62	1.838
64.84	12.266
65.06	12.379
65.28	7.938
65.5	1.274
65.72	5.516
65.94	25.085
66.16	6.182
66.38	1.224
66.6	4.227
66.82	1.295
67.04	6.078
67.26	7.146
67.48	20.225
67.7	21.082
67.92	3.272
68.14	2.41
68.36	9.564
68.58	7.062
68.8	8.116
69.02	6.144
69.24	7.087
69.46	3.994
69.68	11.025
69.9	13.767
70.12	5.21
70.34	17.59
70.56	3.613
70.78	26.216
71	19.379
71.22	21.057
71.44	11.813
71.66	4.626
71.88	15.387
72.1	8.138
72.32	19.377
72.54	23.665
72.76	3.997
72.98	16.868
73.2	12.148
73.42	6.499
73.64	2.124
73.86	1.675
74.08	3.953
74.3	8.26
74.52	10.772
74.74	3.059
74.96	7.142
75.18	5.26
75.4	2.682
75.62	8.891
75.84	2.124
76.06	6.262
76.28	4.107
76.5	2.336
76.72	4.619
76.94	3.694
77.16	11.66
77.38	8.585
77.6	5.311
77.82	4.067
78.04	1.916
78.26	13.943
78.48	16.715
78.7	23.486
78.92	9.116
79.14	2.441
79.36	2.742
79.58	6.426
79.8	5.137
80.02	3.941
80.24	5.751
80.46	14.769
80.68	18.616
80.9	8.578
81.12	3.742
81.34	11.08
81.56	5.722
81.78	2.095
82	9.471
82.22	3.097
82.44	3.517
82.66	14.026
82.88	3.128
83.1	4.293
83.32	2.374
83.54	0.219
83.76	7.102
83.98	6.786
84.2	6.702
84.42	6.649
84.64	6.486
84.86	8.348
85.08	6.205
85.3	6.392
85.52	1.774
85.74	1.943
85.96	11.147
86.18	4.704
86.4	5.84
86.62	2.19
86.84	4.281
87.06	2.514
87.28	10.772
87.5	6.992
87.72	2
87.94	8.891
88.16	3.193
88.38	2.232
88.6	6.289
88.82	2.243
89.04	2.376
89.26	8.555
89.48	3.539
89.7	1.642
89.92	5.504
