Measurement: Powder, Xray Data XY Processed
Mineral: Natrojarosite
Rruff sample: R050289
Ideal chemistry: NaFe^3+^_3_(S^6+^O_4_)_2_(OH)_6_
Locality: Bristol mine, Pioche, Lincoln County, Nevada, USA
Source: Marcus Origlieri
Description: Mustard-colored massive
Diffraction sample description: Powder
Measured chemistry: (Na_0.99_K_0.01_)_Î£=1_Fe^3+^_3.00_(S_1.00_O_4_)_2_(OH)_6_
Cell parameters: a: 7.3156(4) b: 7.3156(4) c: 16.6097(8) alpha: 90 beta: 90 gamma: 120 volume: 769.83(8) crystal system: hexagonal
x	intensity
5	0
5.22	23.043
5.44	15.722
5.66	0.397
5.88	25.98
6.1	37.335
6.32	30.771
6.54	27.843
6.76	20.115
6.98	4.705
7.2	16.997
7.42	1.59
7.64	7.408
7.86	9.709
8.08	14.652
8.3	23.368
8.52	25.412
8.74	16.342
8.96	35.194
9.18	0.201
9.4	33.118
9.62	22.574
9.84	20.9
10.06	39.99
10.28	4.275
10.5	17.786
10.72	3.832
10.94	28.917
11.16	18.423
11.38	21.998
11.6	8.926
11.82	14.349
12.04	7.553
12.26	21.261
12.48	21.921
12.7	5.726
12.92	13.741
13.14	16.055
13.36	27.061
13.58	50.973
13.8	28.008
14.02	13.589
14.24	10.955
14.46	17.227
14.68	23.662
14.9	53.939
15.12	46.675
15.34	43.193
15.56	24.192
15.78	54.661
16	162.709
16.22	17.587
16.44	5.354
16.66	2.297
16.88	5.578
17.1	29.758
17.32	31.291
17.54	76.863
17.76	25.079
17.98	32.287
18.2	7.987
18.42	9.692
18.64	18.159
18.86	45.717
19.08	23.786
19.3	29.716
19.52	6.694
19.74	10.921
19.96	24.681
20.18	30.123
20.4	24.696
20.62	51.105
20.84	30.366
21.06	26.398
21.28	9.386
21.5	29.584
21.72	19.697
21.94	9.18
22.16	22.203
22.38	42.766
22.6	22.301
22.82	21.093
23.04	29.986
23.26	14.559
23.48	0.151
23.7	11.683
23.92	0.588
24.14	37.134
24.36	22.765
24.58	7.585
24.8	32.014
25.02	15.691
25.24	24.313
25.46	2.852
25.68	66.796
25.9	17.731
26.12	14.046
26.34	37.218
26.56	26.167
26.78	18.175
27	36.352
27.22	11.957
27.44	11.544
27.66	10.147
27.88	27.96
28.1	9.54
28.32	5.275
28.54	38.999
28.76	191.23
28.98	23.565
29.2	47.093
29.42	48.77
29.64	1.807
29.86	10.193
30.08	4.964
30.3	47.225
30.52	5.36
30.74	37.499
30.96	16.187
31.18	17.644
31.4	10.146
31.62	27.849
31.84	38.183
32.06	1.345
32.28	48.93
32.5	46.584
32.72	1.047
32.94	37.435
33.16	27.306
33.38	24.717
33.6	23.09
33.82	30.897
34.04	5.406
34.26	6.37
34.48	24.77
34.7	21.155
34.92	13.865
35.14	19.796
35.36	44.484
35.58	33.042
35.8	18.295
36.02	20.57
36.24	1.794
36.46	17.827
36.68	16.933
36.9	3.862
37.12	0.582
37.34	15.37
37.56	25.101
37.78	10.317
38	33.507
38.22	33.442
38.44	38.073
38.66	14.529
38.88	30.923
39.1	36.69
39.32	43.036
39.54	0.163
39.76	20.454
39.98	11.501
40.2	25.335
40.42	16.146
40.64	144.937
40.86	23.405
41.08	21.85
41.3	6.555
41.52	34.951
41.74	22.754
41.96	36.378
42.18	17.447
42.4	26.029
42.62	15.4
42.84	10.615
43.06	26.074
43.28	38.754
43.5	1.895
43.72	38.305
43.94	10.812
44.16	30.621
44.38	23.483
44.6	7.266
44.82	9.638
45.04	3.811
45.26	23.715
45.48	14.01
45.7	36.994
45.92	50.361
46.14	84.823
46.36	4.605
46.58	7.75
46.8	23.143
47.02	19.516
47.24	14.646
47.46	4.473
47.68	34.984
47.9	81.364
48.12	0.591
48.34	39.519
48.56	13.617
48.78	46.234
49	22.012
49.22	0.071
49.44	17.398
49.66	16.887
49.88	73.696
50.1	30.869
50.32	11.855
50.54	11.052
50.76	31.272
50.98	26.367
51.2	19.879
51.42	5.737
51.64	17.547
51.86	18.24
52.08	8.347
52.3	13.007
52.52	3.427
52.74	32.534
52.96	25.504
53.18	34.027
53.4	5.522
53.62	5.318
53.84	36.88
54.06	36.459
54.28	14.407
54.5	15.41
54.72	40.362
54.94	18.161
55.16	20.551
55.38	14.117
55.6	21.871
55.82	26.824
56.04	31.817
56.26	34.858
56.48	2.401
56.7	7.828
56.92	38.536
57.14	10.61
57.36	0.133
57.58	22.809
57.8	39.173
58.02	30.644
58.24	18.488
58.46	50.758
58.68	19.899
58.9	3.67
59.12	15.721
59.34	0.331
59.56	20.335
59.78	2.654
60	3.745
60.22	37.207
60.44	35.781
60.66	86.012
60.88	53.496
61.1	11.109
61.32	20.168
61.54	32.053
61.76	35.251
61.98	3.061
62.2	31.017
62.42	16.404
62.64	37.119
62.86	21.771
63.08	49.622
63.3	30.386
63.52	27.755
63.74	35.851
63.96	14.749
64.18	53.671
64.4	33.523
64.62	10.793
64.84	17.35
65.06	15.398
65.28	21.957
65.5	4.933
65.72	26.534
65.94	29.463
66.16	39.5
66.38	20.156
66.6	11.698
66.82	3.38
67.04	23.474
67.26	14.468
67.48	14.12
67.7	10.011
67.92	32.577
68.14	5.145
68.36	24.75
68.58	32.963
68.8	13.819
69.02	13.825
69.24	25.047
69.46	23.224
69.68	49.834
69.9	21.062
70.12	58.119
70.34	32.823
70.56	23.923
70.78	9.444
71	4.953
71.22	3.657
71.44	11.372
71.66	20.757
71.88	8.551
72.1	22.622
72.32	48.227
72.54	19.129
72.76	42.641
72.98	0.857
73.2	37.423
73.42	21.995
73.64	17.226
73.86	19.963
74.08	36.026
74.3	15.696
74.52	21.486
74.74	6.386
74.96	24.887
75.18	18.079
75.4	16.535
75.62	21.884
75.84	19.762
76.06	12.284
76.28	33.928
76.5	12.086
76.72	15.516
76.94	18.389
77.16	0.131
77.38	16.82
77.6	25.961
77.82	12.275
78.04	36.785
78.26	21.39
78.48	12.017
78.7	27.7
78.92	42.781
79.14	13.097
79.36	32.413
79.58	5.925
79.8	25.68
80.02	28.507
80.24	18.953
80.46	28.973
80.68	15.573
80.9	23.888
81.12	9.869
81.34	36.189
81.56	19.064
81.78	29.545
82	16.682
82.22	5.248
82.44	16.589
82.66	17.245
82.88	1.789
83.1	5.637
83.32	45.954
83.54	13.226
83.76	7.797
83.98	27.935
84.2	48.075
84.42	38.388
84.64	7.379
84.86	4.42
85.08	17.152
85.3	10.557
85.52	28.979
85.74	48.99
85.96	40.888
86.18	43.674
86.4	41.288
86.62	28.038
86.84	28.779
87.06	3.081
87.28	14.305
87.5	19.01
87.72	18.305
87.94	33.043
88.16	3.456
88.38	22.123
88.6	27.413
88.82	15.12
89.04	28.935
89.26	5.677
89.48	41.184
89.7	64.017
89.92	9.744
