Measurement: Powder, Xray Data XY Processed
Mineral: Natroalunite
Rruff sample: R060406
Ideal chemistry: NaAl_3_(S^6+^O_4_)_2_(OH)_6_
Locality: Sugar Loaf Butte, Arizona, USA
Source: American Museum of Natural History
Description: Tan colored consolidated powder
Diffraction sample description: Powder
Cell parameters: a: 6.9845(2) b: 6.9845(2) c: 17.3234(8) alpha: 90 beta: 90 gamma: 120 volume: 731.88(5) crystal system: hexagonal
x	intensity
5	0
5.22	8.7
5.44	6.044
5.66	10.966
5.88	15.163
6.1	4.506
6.32	32.086
6.54	7.843
6.76	26.368
6.98	11.089
7.2	6.605
7.42	0.782
7.64	9.029
7.86	8.557
8.08	12.117
8.3	10.717
8.52	9.186
8.74	17.684
8.96	12.717
9.18	10.054
9.4	11.202
9.62	7.455
9.84	7.695
10.06	10.663
10.28	4.89
10.5	10.286
10.72	4.529
10.94	4.763
11.16	7.632
11.38	5.01
11.6	8.188
11.82	0.27
12.04	2.228
12.26	4.281
12.48	4.395
12.7	1.368
12.92	5.199
13.14	4.217
13.36	6.362
13.58	10.656
13.8	3.428
14.02	1.474
14.24	4.492
14.46	9.547
14.68	1.572
14.9	3.793
15.12	6.897
15.34	29.822
15.56	165.899
15.78	9.653
16	4.167
16.22	8.03
16.44	6.959
16.66	0.261
16.88	3.508
17.1	4.224
17.32	1.764
17.54	3.586
17.76	4.443
17.98	226.315
18.2	6.14
18.42	7.156
18.64	4.297
18.86	4.25
19.08	1.69
19.3	4.073
19.52	7.243
19.74	2.384
19.96	6.492
20.18	5.765
20.4	1.314
20.62	11.853
20.84	10.896
21.06	2.93
21.28	3.992
21.5	11.95
21.72	5.803
21.94	0.149
22.16	1.876
22.38	6.073
22.6	3.31
22.82	6.313
23.04	9.262
23.26	2.063
23.48	2.261
23.7	6.185
23.92	0.157
24.14	0.246
24.36	2.263
24.58	7.216
24.8	1.027
25.02	1.556
25.24	0.965
25.46	35.895
25.68	11.839
25.9	6.634
26.12	3.577
26.34	3.552
26.56	12.753
26.78	33.808
27	19.144
27.22	0.227
27.44	2.275
27.66	1.247
27.88	5.256
28.1	8.18
28.32	4.986
28.54	3.636
28.76	0.099
28.98	6.311
29.2	2.155
29.42	6.398
29.64	13.935
29.86	157.274
30.08	222.919
30.3	7.702
30.52	4.808
30.74	8.871
30.96	58.306
31.18	25.236
31.4	10.808
31.62	1.442
31.84	5.859
32.06	4.357
32.28	0.721
32.5	2.77
32.72	3.264
32.94	6.376
33.16	8.618
33.38	4.762
33.6	7.426
33.82	10.573
34.04	6.319
34.26	2.155
34.48	3.07
34.7	5.637
34.92	7.772
35.14	3.55
35.36	9.474
35.58	8.299
35.8	2.341
36.02	4.438
36.24	23.232
36.46	2.402
36.68	6.543
36.9	2.289
37.12	1.678
37.34	0.311
37.56	6.54
37.78	6.522
38	3.26
38.22	7.68
38.44	3.266
38.66	9.792
38.88	6.403
39.1	8.953
39.32	207.516
39.54	93.551
39.76	28.436
39.98	11.406
40.2	11.393
40.42	7.905
40.64	8.256
40.86	25.782
41.08	1.722
41.3	0.367
41.52	5.982
41.74	5.452
41.96	6.505
42.18	1.691
42.4	13.814
42.62	7.899
42.84	4.691
43.06	4.726
43.28	6.51
43.5	6.389
43.72	0.475
43.94	1.397
44.16	4.245
44.38	7.484
44.6	0.701
44.82	7.439
45.04	16.388
45.26	0.339
45.48	0.468
45.7	5.467
45.92	2.215
46.14	7.097
46.36	0.992
46.58	5.809
46.8	3.454
47.02	11.156
47.24	42.358
47.46	24.37
47.68	31.619
47.9	107.584
48.12	8.78
48.34	7.911
48.56	11.35
48.78	1.4
49	3.764
49.22	1.929
49.44	3.259
49.66	2.391
49.88	0.659
50.1	11.13
50.32	9.285
50.54	8.381
50.76	8.324
50.98	4.967
51.2	1.803
51.42	0.287
51.64	3.62
51.86	1.453
52.08	9.167
52.3	24.304
52.52	48.266
52.74	4.374
52.96	5.398
53.18	3.406
53.4	0.534
53.62	3.499
53.84	5.468
54.06	2.687
54.28	2.244
54.5	5.204
54.72	7.95
54.94	4.858
55.16	0.627
55.38	0.574
55.6	7.589
55.82	14.824
56.04	9.084
56.26	4.249
56.48	0.56
56.7	0.84
56.92	1.008
57.14	5.245
57.36	3.64
57.58	1.657
57.8	1.509
58.02	7.453
58.24	3.205
58.46	3.301
58.68	11.327
58.9	14.354
59.12	8.098
59.34	6.3
59.56	4.117
59.78	0.056
60	3.069
60.22	5.843
60.44	5.53
60.66	3.991
60.88	2.511
61.1	1.989
61.32	8.685
61.54	34.135
61.76	71.894
61.98	34.799
62.2	35.865
62.42	18.797
62.64	6.633
62.86	7.002
63.08	4.401
63.3	0.965
63.52	2.467
63.74	3.973
63.96	0.396
64.18	0.638
64.4	4.658
64.62	2.681
64.84	5.724
65.06	5.216
65.28	2.289
65.5	11.146
65.72	2.121
65.94	2.825
66.16	2.534
66.38	2.183
66.6	0.955
66.82	4.741
67.04	4.588
67.26	10.194
67.48	21.95
67.7	16.945
67.92	5.943
68.14	5.902
68.36	7.146
68.58	4.544
68.8	2.017
69.02	3.432
69.24	1.685
69.46	1.05
69.68	2.189
69.9	11.484
70.12	2.513
70.34	11.525
70.56	4.359
70.78	2.435
71	3.66
71.22	9.43
71.44	13.069
71.66	6.856
71.88	2.543
72.1	2.29
72.32	2.952
72.54	5.688
72.76	5.555
72.98	6.644
73.2	5.442
73.42	14.352
73.64	22.513
73.86	19.738
74.08	6.078
74.3	3.334
74.52	2.623
74.74	5.941
74.96	2.327
75.18	0.439
75.4	1.755
75.62	1.928
75.84	6.781
76.06	1.627
76.28	7.595
76.5	2.46
76.72	5.631
76.94	2.58
77.16	9.491
77.38	0.54
77.6	6.488
77.82	3.136
78.04	2.844
78.26	2.509
78.48	6.345
78.7	3.183
78.92	2.026
79.14	27.659
79.36	26.696
79.58	15.939
79.8	17.879
80.02	6.929
80.24	4.227
80.46	2.664
80.68	7.466
80.9	1.496
81.12	7.559
81.34	7.717
81.56	6.78
81.78	5.572
82	5.064
82.22	4.791
82.44	4.995
82.66	10.822
82.88	14.635
83.1	14.418
83.32	1.713
83.54	0.306
83.76	1.033
83.98	11.822
84.2	8.792
84.42	10.77
84.64	8.709
84.86	0.297
85.08	18.875
85.3	6.333
85.52	8.576
85.74	1.017
85.96	0.146
86.18	3.418
86.4	5.708
86.62	6.16
86.84	6.338
87.06	2.498
87.28	0.453
87.5	1.36
87.72	4.306
87.94	5.439
88.16	7.439
88.38	5.769
88.6	11.945
88.82	9.959
89.04	4.031
89.26	6.332
89.48	0.596
89.7	4.413
89.92	0.437
