Measurement: Powder, Xray Data XY Processed
Mineral: Naumannite
Rruff sample: R070505
Ideal chemistry: Ag^1+^_2_Se^2-^
Locality: DeLamar mine, Silver City District, Owyhee County, Idaho, USA
Source: James Shigley
Description: Dark gray metallic massive
Diffraction sample description: Powder, using Mo radiation
x	intensity
6.88	0
7	7.59306
7.12	0.559128
7.24	3.94102
7.36	9.24359
7.48	8.13103
7.6	26.3849
7.72	29.4778
7.84	31.9989
7.96	27.9265
8.08	25.6999
8.2	26.0894
8.32	20.0127
8.44	29.1225
8.56	28.7572
8.68	21.5909
8.8	20.0587
8.92	17.4663
9.04	16.0292
9.16	24.3911
9.28	30.4477
9.4	17.0088
9.52	18.1541
9.64	13.9615
9.76	19.4468
9.88	12.8316
10	17.7677
10.12	25.6342
10.24	6.97681
10.36	17.3733
10.48	21.9653
10.6	25.1985
10.72	34.6896
10.84	24.4397
10.96	19.5546
11.08	20.1909
11.2	25.9832
11.32	19.8519
11.44	21.1256
11.56	17.9007
11.68	5.38124
11.8	9.62604
11.92	16.9249
12.04	16.013
12.16	22.4644
12.28	20.6034
12.4	19.9279
12.52	17.1325
12.64	7.59471
12.76	12.1577
12.88	6.63358
13	6.27341
13.12	9.74925
13.24	1.72218
13.36	0.666351
13.48	4.85246
13.6	7.06253
13.72	0.632584
13.84	0.397644
13.96	16.4094
14.08	18.9319
14.2	36.2822
14.32	66.8746
14.44	54.2479
14.56	20.8334
14.68	27.5594
14.8	74.736
14.92	104.459
15.04	102.624
15.16	133.01
15.28	152.747
15.4	247.305
15.52	278.712
15.64	246.934
15.76	345.941
15.88	373.226
16	294.771
16.12	122.885
16.24	34.8419
16.36	13.414
16.48	12.2895
16.6	11.9136
16.72	18.2841
16.84	39.2264
16.96	76.7783
17.08	70.3455
17.2	24.2298
17.32	3.64209
17.44	4.96885
17.56	3.65346
17.68	6.08814
17.8	2.96392
17.92	41.7078
18.04	168.926
18.16	209.815
18.28	156.483
18.4	97.5063
18.52	52.5127
18.64	19.3348
18.76	9.83962
18.88	6.93793
19	8.23317
19.12	12.7928
19.24	25.7318
19.36	47.5324
19.48	84.9337
19.6	98.9205
19.72	92.2266
19.84	74.1731
19.96	31.7322
20.08	28.304
20.2	91.5995
20.32	192.325
20.44	196.864
20.56	97.6603
20.68	35.6976
20.8	15.1591
20.92	3.84181
21.04	9.37971
21.16	6.48952
21.28	8.01395
21.4	2.92519
21.52	5.59731
21.64	6.21264
21.76	23.7315
21.88	45.9648
22	53.5076
22.12	39.0266
22.24	20.5608
22.36	28.3951
22.48	38.5833
22.6	36.381
22.72	19.5255
22.84	4.13157
22.96	2.95691
23.08	8.21839
23.2	9.83833
23.32	5.29698
23.44	4.04362
23.56	6.29639
23.68	4.64103
23.8	13.0057
23.92	8.5797
24.04	5.75248
24.16	4.71151
24.28	8.46364
24.4	2.80245
24.52	5.30077
24.64	1.67914
24.76	1.68356
24.88	3.25584
25	1.13947
25.12	4.4883
25.24	7.96141
25.36	26.4407
25.48	51.1783
25.6	59.7576
25.72	39.3549
25.84	21.4077
25.96	11.4255
26.08	11.4043
26.2	9.08723
26.32	5.40955
26.44	11.7054
26.56	11.2542
26.68	7.4464
26.8	4.36154
26.92	4.13399
27.04	3.8096
27.16	4.81992
27.28	5.11295
27.4	8.90379
27.52	10.5332
27.64	2.42704
27.76	9.12902
27.88	12.8929
28	12.3745
28.12	12.0654
28.24	13.5842
28.36	6.43839
28.48	2.40781
28.6	1.05919
28.72	0.301949
28.84	1.66045
28.96	13.3867
29.08	19.5842
29.2	28.7595
29.32	21.5613
29.44	11.4015
29.56	5.44821
29.68	13.1182
29.8	21.2758
29.92	19.8249
30.04	16.6891
30.16	19.0309
30.28	14.0838
30.4	15.1766
30.52	27.461
30.64	37.0912
30.76	38.2287
30.88	24.1183
31	27.2539
31.12	25.5741
31.24	24.2534
31.36	32.9133
31.48	53.4646
31.6	59.0906
31.72	61.3656
31.84	32.733
31.96	16.5861
32.08	10.9654
32.2	5.87214
32.32	5.29402
32.44	2.94444
32.56	10.3246
32.68	10.9664
32.8	10.7658
32.92	15.5654
33.04	22.5534
33.16	24.4458
33.28	22.3667
33.4	19.8582
33.52	17.4804
33.64	13.0621
33.76	14.2467
33.88	13.2153
34	12.4322
34.12	12.2296
34.24	22.2504
34.36	23.2526
34.48	24.2491
34.6	12.2771
34.72	14.3272
34.84	16.5079
34.96	7.703
35.08	4.51636
35.2	3.0911
35.32	8.11896
35.44	8.7416
35.56	7.97973
35.68	0.089836
35.8	3.39922
35.92	0.575127
36.04	1.54328
36.16	3.01305
36.28	1.66643
36.4	0.604042
36.52	1.53902
36.64	8.26702
36.76	10.5443
36.88	6.89325
37	11.1458
37.12	12.4263
37.24	3.36345
37.36	7.78527
37.48	4.55633
37.6	1.00969
37.72	3.6796
37.84	5.96062
37.96	11.2055
38.08	9.41248
38.2	6.94029
38.32	3.44613
38.44	6.6889
38.56	11.7223
38.68	18.9379
38.8	14.0246
38.92	14.5601
39.04	8.08865
39.16	0.346283
39.28	6.72705
39.4	1.46141
39.52	3.02478
39.64	3.87343
39.76	1.28511
39.88	6.96408
40	5.66513
40.12	4.32461
40.24	6.81297
40.36	1.75343
40.48	0.264
40.6	3.7814
40.72	7.29742
40.84	6.6977
40.96	7.77484
41.08	7.63556
41.2	6.32317
41.32	9.68116
41.44	6.49421
41.56	7.13714
41.68	8.53538
41.8	8.95887
41.92	12.0745
42.04	12.2221
42.16	13.0784
42.28	7.84036
42.4	6.7468
42.52	12.8068
42.64	18.4861
42.76	17.4862
42.88	13.0063
43	11.4696
43.12	9.6634
43.24	2.41533
43.36	5.93393
43.48	11.0283
43.6	11.994
43.72	10.3394
43.84	11.4498
43.96	7.06061
44.08	13.8392
44.2	0.295284
44.32	4.45408
44.44	6.64641
44.56	1.56527
44.68	8.68263
44.8	7.18642
44.92	5.21549
45.04	4.28442
45.16	6.36014
45.28	6.09914
45.4	6.44887
45.52	14.3378
45.64	15.7348
45.76	13.9435
45.88	20.9404
46	7.66878
46.12	3.0556
46.24	2.1792
46.36	0.471485
46.48	9.10595
46.6	4.71899
46.72	2.10634
46.84	1.82801
