Measurement: Powder, Xray Data XY Processed
Mineral: Nepheline
Rruff sample: R040025
Ideal chemistry: Na_3_K(Al_4_Si_4_O_16_)
Locality: Bancroft, Ontario, Canada
Source: University of Arizona Mineral Museum
Description: White massive mixture of 88% nepheline, 12% cancrinite
Diffraction sample description: Powder
Measured chemistry: (Na_0.77_K_0.23_)_Î£=1_Al_1.00_Si_1.00_O_4_
Cell parameters: a: 10.0011(2) b: 10.0011(2) c: 8.3855(4) alpha: 90 beta: 90 gamma: 120 volume: 726.37(3) crystal system: hexagonal
x	intensity
5	0
5.22	9.843
5.44	10.398
5.66	12.123
5.88	14.393
6.1	11.827
6.32	3.889
6.54	16.472
6.76	17.441
6.98	14.078
7.2	7.883
7.42	5.993
7.64	2.952
7.86	3.698
8.08	9.325
8.3	5.19
8.52	7.403
8.74	8.06
8.96	2.496
9.18	9.674
9.4	12.991
9.62	2.947
9.84	10.093
10.06	13.254
10.28	11.7
10.5	8.919
10.72	12.126
10.94	2.341
11.16	3.393
11.38	2.628
11.6	2.607
11.82	13.556
12.04	3.535
12.26	9.702
12.48	3.594
12.7	3.287
12.92	3.168
13.14	5.82
13.36	1.039
13.58	5.798
13.8	12.582
14.02	19.509
14.24	1.557
14.46	3.656
14.68	3.359
14.9	4.468
15.12	3.646
15.34	1.911
15.56	3.167
15.78	10.241
16	3.622
16.22	4.93
16.44	11.294
16.66	4.459
16.88	5.92
17.1	12.398
17.32	7.523
17.54	2.552
17.76	53.579
17.98	11.522
18.2	7.092
18.42	3.953
18.64	3.253
18.86	9.409
19.08	8.265
19.3	13.613
19.52	6.06
19.74	7.692
19.96	2.397
20.18	5.016
20.4	11.699
20.62	35.11
20.84	19.953
21.06	14.624
21.28	177.191
21.5	2.943
21.72	6.835
21.94	3.691
22.16	5.553
22.38	8.417
22.6	8.298
22.82	11.692
23.04	63.655
23.26	56.316
23.48	14.015
23.7	12.864
23.92	5.109
24.14	3.695
24.36	9.559
24.58	58.225
24.8	13.457
25.02	7.056
25.24	6.724
25.46	3.964
25.68	8.734
25.9	5.507
26.12	6.171
26.34	10.631
26.56	9.162
26.78	17.292
27	18.828
27.22	251.284
27.44	29.965
27.66	11.02
27.88	175.317
28.1	4.421
28.32	8.378
28.54	4.382
28.76	2.375
28.98	5.426
29.2	14.456
29.42	22.561
29.64	550.307
29.86	37.85
30.08	1.468
30.3	18.103
30.52	4.126
30.74	12.353
30.96	563.541
31.18	23.19
31.4	10.531
31.62	1.675
31.84	0.62
32.06	2.979
32.28	10.85
32.5	3.151
32.72	15.342
32.94	16.004
33.16	4.048
33.38	5.188
33.6	12.789
33.82	4.543
34.04	1.607
34.26	0.873
34.48	44.515
34.7	29.321
34.92	31.337
35.14	22.029
35.36	0.505
35.58	9.092
35.8	13.995
36.02	122.24
36.24	7.101
36.46	4.82
36.68	1.148
36.9	2.662
37.12	6.444
37.34	40.039
37.56	119.62
37.78	16.72
38	9.91
38.22	6.987
38.44	182.037
38.66	9.541
38.88	15.255
39.1	172.828
39.32	10.451
39.54	8.256
39.76	2.122
39.98	6.789
40.2	6.485
40.42	5.815
40.64	6.761
40.86	1.528
41.08	8.084
41.3	13.94
41.52	0.52
41.74	44.755
41.96	9.142
42.18	19.632
42.4	2.964
42.62	24.693
42.84	1.909
43.06	26.606
43.28	111.053
43.5	26.328
43.72	4.326
43.94	7.093
44.16	7.723
44.38	6.031
44.6	7.271
44.82	1.853
45.04	6.224
45.26	21.864
45.48	1.543
45.7	18.516
45.92	5.414
46.14	3.074
46.36	4.49
46.58	4.427
46.8	6.705
47.02	86.488
47.24	55.91
47.46	8.56
47.68	12.633
47.9	3.621
48.12	56.344
48.34	34.338
48.56	13.51
48.78	6.487
49	3.958
49.22	9.928
49.44	23.284
49.66	3.535
49.88	5.677
50.1	19.228
50.32	9.399
50.54	5.545
50.76	63.789
50.98	70.775
51.2	10.339
51.42	3.273
51.64	5.068
51.86	2.167
52.08	11.687
52.3	13.553
52.52	12.991
52.74	5.619
52.96	6.601
53.18	5.52
53.4	19.66
53.62	3.164
53.84	7.789
54.06	86.12
54.28	3.912
54.5	7.092
54.72	7.342
54.94	3.378
55.16	2.31
55.38	12.159
55.6	4.919
55.82	3.155
56.04	7.828
56.26	39.278
56.48	8.64
56.7	4.958
56.92	20.316
57.14	0.104
57.36	18.954
57.58	106.799
57.8	9.705
58.02	4.728
58.24	10.73
58.46	7.544
58.68	5.506
58.9	13.104
59.12	57.4
59.34	29.387
59.56	26.487
59.78	8.958
60	6.591
60.22	4.388
60.44	11.763
60.66	13.697
60.88	29.392
61.1	4.641
61.32	8.451
61.54	13.904
61.76	0.101
61.98	7.654
62.2	12.425
62.42	1.127
62.64	3.1
62.86	7.9
63.08	28.157
63.3	24.68
63.52	6.353
63.74	7.168
63.96	18.174
64.18	3.094
64.4	11.069
64.62	3.547
64.84	0.29
65.06	14.582
65.28	27.608
65.5	4.747
65.72	11.578
65.94	0.502
66.16	11.145
66.38	13.912
66.6	13.675
66.82	3.469
67.04	9.815
67.26	11.291
67.48	131.261
67.7	103.27
67.92	4.533
68.14	48.045
68.36	50.87
68.58	9.349
68.8	3.847
69.02	6.471
69.24	4.289
69.46	4.744
69.68	20.052
69.9	17.227
70.12	8.45
70.34	3.447
70.56	1.406
70.78	0.055
71	8.16
71.22	9.447
71.44	7.276
71.66	36.561
71.88	19.177
72.1	2.183
72.32	5.286
72.54	3.361
72.76	10.107
72.98	12.073
73.2	7.192
73.42	5.315
73.64	7.029
73.86	30.741
74.08	18.352
74.3	2.196
74.52	1.298
74.74	21.642
74.96	7.599
75.18	0.741
75.4	12.32
75.62	26.222
75.84	4.086
76.06	6.236
76.28	5.467
76.5	2.568
76.72	4.005
76.94	2.049
77.16	4.04
77.38	5.022
77.6	7.041
77.82	5.456
78.04	15.503
78.26	6.408
78.48	6.521
78.7	6.333
78.92	8.163
79.14	3.033
79.36	8.96
79.58	13.925
79.8	18.832
80.02	15.585
80.24	1.456
80.46	0.386
80.68	0.458
80.9	26.337
81.12	13.668
81.34	21.679
81.56	3.827
81.78	15.343
82	14.746
82.22	8.264
82.44	6.491
82.66	4.692
82.88	2.113
83.1	1.028
83.32	1.095
83.54	21.984
83.76	10.036
83.98	13.676
84.2	1.559
84.42	1.296
84.64	8.924
84.86	7.849
85.08	6.817
85.3	5.772
85.52	3.938
85.74	10.143
85.96	8.255
86.18	6.73
86.4	7.19
86.62	4.103
86.84	7.369
87.06	2.834
87.28	0.798
87.5	12.405
87.72	2.696
87.94	1.702
88.16	0.769
88.38	6.725
88.6	0.368
88.82	5.805
89.04	4.063
89.26	9.92
89.48	4.071
89.7	5.622
89.92	5.064
