Measurement: Powder, Xray Data XY Processed
Mineral: Nickeline
Rruff sample: R060121
Ideal chemistry: NiAs
Locality: Yellowknife, Great Slave Lake, Canada
Source: University of Arizona Mineral Museum
Description: Bronze colored massive
Diffraction sample description: Powder
Measured chemistry: Ni_1.06_As_0.94_
Cell parameters: a: 3.62033(7) b: 3.62033(7) c: 5.0363(1) alpha: 90 beta: 90 gamma: 120 volume: 57.166(2) crystal system: hexagonal
x	intensity
5	0
5.22	16.262
5.44	14.836
5.66	30.972
5.88	18.101
6.1	12.198
6.32	15.02
6.54	4.23
6.76	8.576
6.98	18.199
7.2	11.281
7.42	5.636
7.64	19.388
7.86	10.696
8.08	4.25
8.3	6.775
8.52	13.367
8.74	7.464
8.96	16.52
9.18	23.601
9.4	10.43
9.62	22.488
9.84	7.941
10.06	5.689
10.28	12.502
10.5	30.1
10.72	27.512
10.94	32.648
11.16	7.119
11.38	0.828
11.6	11.663
11.82	24.409
12.04	15.154
12.26	10.327
12.48	2.097
12.7	29.179
12.92	13.356
13.14	18.85
13.36	12.158
13.58	23.8
13.8	10.937
14.02	12.645
14.24	13.868
14.46	6.001
14.68	13.029
14.9	13.221
15.12	20.319
15.34	0.098
15.56	16.186
15.78	9.657
16	26.882
16.22	0.892
16.44	28.073
16.66	4.787
16.88	6.118
17.1	4.079
17.32	3.859
17.54	19.701
17.76	27.611
17.98	6.045
18.2	7.158
18.42	6.52
18.64	20.869
18.86	17.208
19.08	1.049
19.3	23.06
19.52	8.048
19.74	10.065
19.96	23.877
20.18	1.679
20.4	12.873
20.62	1.454
20.84	18.352
21.06	1.763
21.28	7.672
21.5	18.658
21.72	12.011
21.94	12.342
22.16	10.428
22.38	8.58
22.6	7.513
22.82	13.754
23.04	28.756
23.26	11.919
23.48	10.636
23.7	11.583
23.92	8.685
24.14	12.926
24.36	22.827
24.58	8.435
24.8	8.58
25.02	1.213
25.24	12.614
25.46	4.211
25.68	19.432
25.9	22.39
26.12	7.627
26.34	18.013
26.56	7.196
26.78	57.044
27	20.99
27.22	20.166
27.44	3.5
27.66	17.325
27.88	15.319
28.1	4.68
28.32	14.973
28.54	76.374
28.76	14.202
28.98	8.759
29.2	18.701
29.42	8.595
29.64	16.035
29.86	10.28
30.08	24.229
30.3	0.905
30.52	19.233
30.74	21.742
30.96	16.496
31.18	25.621
31.4	11.351
31.62	11.796
31.84	11.797
32.06	0.173
32.28	12.987
32.5	30.049
32.72	3.213
32.94	3.77
33.16	16.094
33.38	26.985
33.6	157.2
33.82	487.98
34.04	26.232
34.26	0.518
34.48	25.293
34.7	19.762
34.92	19.143
35.14	0.289
35.36	8.276
35.58	5.533
35.8	26.776
36.02	5.792
36.24	10.01
36.46	10.823
36.68	12.199
36.9	10.565
37.12	14.33
37.34	16.335
37.56	13.922
37.78	2.921
38	21.676
38.22	23.711
38.44	27.072
38.66	25.362
38.88	2.895
39.1	7.051
39.32	3.957
39.54	1.944
39.76	13.125
39.98	25.552
40.2	10.971
40.42	18.244
40.64	30.266
40.86	20.027
41.08	2.171
41.3	9.064
41.52	18.798
41.74	22.822
41.96	15.25
42.18	15.079
42.4	10.619
42.62	14.329
42.84	1.545
43.06	3.503
43.28	11.144
43.5	7.183
43.72	4.824
43.94	26.668
44.16	13.103
44.38	19.28
44.6	12.317
44.82	13.353
45.04	8.686
45.26	3.712
45.48	15.119
45.7	11.307
45.92	37.279
46.14	137.561
46.36	614.114
46.58	52.215
46.8	0.42
47.02	15.116
47.24	9.956
47.46	0.955
47.68	26.837
47.9	4.367
48.12	15.677
48.34	13.681
48.56	12.995
48.78	25.294
49	22.33
49.22	9.019
49.44	17.206
49.66	11.262
49.88	19.645
50.1	31.264
50.32	122.741
50.54	312.027
50.76	46.828
50.98	33.781
51.2	5.949
51.42	16.725
51.64	30.338
51.86	7.227
52.08	13.683
52.3	2.709
52.52	16.144
52.74	19.348
52.96	20.752
53.18	15.898
53.4	14.506
53.62	21.206
53.84	28.808
54.06	25.016
54.28	16.942
54.5	19.833
54.72	14.647
54.94	29.65
55.16	22.172
55.38	14.839
55.6	12.775
55.82	1.529
56.04	17.256
56.26	10.217
56.48	17.049
56.7	20.968
56.92	12.431
57.14	13.413
57.36	17.91
57.58	8.727
57.8	8.254
58.02	7.08
58.24	11.642
58.46	18.247
58.68	12.986
58.9	31.14
59.12	18.706
59.34	19.624
59.56	5.325
59.78	15.753
60	24.749
60.22	19.947
60.44	24.427
60.66	5.228
60.88	17.344
61.1	11.229
61.32	4.706
61.54	6.37
61.76	1.241
61.98	141.278
62.2	59.321
62.42	12.287
62.64	22.08
62.86	72.305
63.08	26.479
63.3	22.522
63.52	7.326
63.74	16.291
63.96	22.956
64.18	35.145
64.4	16.893
64.62	21.496
64.84	17.779
65.06	6.362
65.28	28.786
65.5	15.703
65.72	20.503
65.94	9.645
66.16	12.326
66.38	9.534
66.6	12.514
66.82	16.957
67.04	18.023
67.26	7.735
67.48	7.947
67.7	9.999
67.92	18.115
68.14	25.54
68.36	20.523
68.58	9.43
68.8	10.471
69.02	19.979
69.24	4.482
69.46	3.709
69.68	14.089
69.9	7.204
70.12	12.115
70.34	1.523
70.56	30.791
70.78	163.787
71	89.745
71.22	13.969
71.44	3.914
71.66	15.087
71.88	7.75
72.1	8.063
72.32	4.743
72.54	25.389
72.76	21.95
72.98	28.448
73.2	22.308
73.42	31.34
73.64	18.488
73.86	10.802
74.08	15.74
74.3	14.526
74.52	4.624
74.74	2.427
74.96	1.793
75.18	22.471
75.4	22.172
75.62	28.412
75.84	31.644
76.06	24.901
76.28	9.454
76.5	14.35
76.72	9.257
76.94	3.142
77.16	17.527
77.38	5.887
77.6	14.771
77.82	8.119
78.04	20.538
78.26	30.654
78.48	0.197
78.7	5.835
78.92	13.679
79.14	7.076
79.36	0.629
79.58	31.834
79.8	10.932
80.02	11.996
80.24	4.459
80.46	15.758
80.68	6.679
80.9	5.054
81.12	27.29
81.34	26.421
81.56	0.875
81.78	15.216
82	1.094
82.22	8.14
82.44	13.251
82.66	23.259
82.88	23.681
83.1	18.038
83.32	12.366
83.54	28.445
83.76	49.249
83.98	56.846
84.2	27.29
84.42	18.669
84.64	26.229
84.86	23.276
85.08	8.191
85.3	6.893
85.52	9.809
85.74	11.247
85.96	1.869
86.18	19.961
86.4	34.898
86.62	16.077
86.84	19.21
87.06	10.962
87.28	25.356
87.5	34.127
87.72	13.373
87.94	26.907
88.16	3.278
88.38	23.261
88.6	16.303
88.82	28.933
89.04	13.704
89.26	12.008
89.48	17.143
89.7	6.507
89.92	13.623
