Measurement: Powder, Xray Data XY Processed
Mineral: Nickeline
Rruff sample: R060906
Ideal chemistry: NiAs
Locality: Moose Horn mine, Timiskaming district, Ontario, Canada
Source: Royal Ontario Museum
Description: Massive metallic lustered tarnished to dull copper color
Diffraction sample description: Powder
Measured chemistry: Ni_1.00_(As_0.98_Sb_0.02_)_Î£=1_ ; trace amounts of Co and Fe
Cell parameters: a: 3.62673(4) b: 3.62673(4) c: 5.03914(6) alpha: 90 beta: 90 gamma: 120 volume: 57.401(1) crystal system: hexagonal
x	intensity
5	0
5.22	27.7913
5.44	12.9009
5.66	23.9718
5.88	8.83855
6.1	1.63003
6.32	18.332
6.54	12.4298
6.76	27.6329
6.98	12.784
7.2	10.6768
7.42	8.32406
7.64	22.8082
7.86	13.6846
8.08	4.35881
8.3	2.65382
8.52	0.860222
8.74	13.0026
8.96	10.2083
9.18	10.1808
9.4	14.8248
9.62	8.96997
9.84	12.7398
10.06	13.5544
10.28	31.289
10.5	19.111
10.72	6.37588
10.94	5.47865
11.16	8.23052
11.38	12.0288
11.6	0.604481
11.82	12.0503
12.04	2.45488
12.26	13.5016
12.48	33.9547
12.7	25.4603
12.92	22.5027
13.14	15.1243
13.36	37.0339
13.58	4.19975
13.8	23.9423
14.02	20.3182
14.24	21.8711
14.46	13.653
14.68	22.0335
14.9	3.96319
15.12	9.83006
15.34	17.8114
15.56	17.5055
15.78	26.8371
16	7.31149
16.22	14.0205
16.44	15.7186
16.66	1.60961
16.88	10.1273
17.1	14.369
17.32	16.4957
17.54	9.36097
17.76	15.7669
17.98	21.5272
18.2	16.1748
18.42	20.836
18.64	5.07368
18.86	6.92415
19.08	2.17596
19.3	17.1896
19.52	27.9298
19.74	31.7716
19.96	36.0941
20.18	5.67714
20.4	11.2981
20.62	9.0148
20.84	29.4928
21.06	7.66624
21.28	17.7346
21.5	20.5287
21.72	10.9418
21.94	24.5877
22.16	13.1125
22.38	8.6066
22.6	26.5945
22.82	2.96742
23.04	7.75185
23.26	11.419
23.48	22.2357
23.7	28.0334
23.92	8.72762
24.14	4.08664
24.36	3.77138
24.58	15.7389
24.8	23.4184
25.02	30.5292
25.24	27.9234
25.46	22.6113
25.68	5.1374
25.9	22.5387
26.12	17.3217
26.34	10.2465
26.56	27.9833
26.78	13.1213
27	5.59065
27.22	5.25314
27.44	10.769
27.66	28.1028
27.88	12.1377
28.1	4.7596
28.32	22.1585
28.54	32.56
28.76	9.49797
28.98	4.65228
29.2	4.81395
29.42	1.52084
29.64	1.81212
29.86	13.5452
30.08	1.39893
30.3	8.49358
30.52	25.1232
30.74	3.09362
30.96	9.14255
31.18	1.18233
31.4	32.5174
31.62	34.1523
31.84	20.9982
32.06	9.46269
32.28	1.54719
32.5	19.2166
32.72	10.0829
32.94	25.4499
33.16	19.8808
33.38	35.8021
33.6	958.924
33.82	173.682
34.04	22.99
34.26	26.0817
34.48	17.123
34.7	13.0878
34.92	7.03186
35.14	40.5819
35.36	46.3905
35.58	44.6041
35.8	28.1374
36.02	22.4062
36.24	3.60106
36.46	4.41956
36.68	32.8475
36.9	27.6152
37.12	34.7662
37.34	7.70823
37.56	8.26217
37.78	7.90398
38	1.58726
38.22	0.748055
38.44	20.3189
38.66	41.9018
38.88	26.3616
39.1	24.3286
39.32	34.0695
39.54	29.8359
39.76	5.34653
39.98	20.4183
40.2	15.3575
40.42	6.54121
40.64	7.85085
40.86	26.2372
41.08	1.97896
41.3	7.49642
41.52	24.558
41.74	9.51485
41.96	5.89442
42.18	21.5926
42.4	13.7526
42.62	8.36415
42.84	22.6529
43.06	15.2464
43.28	18.3127
43.5	23.9915
43.72	8.63946
43.94	19.1131
44.16	2.24711
44.38	21.3348
44.6	17.386
44.82	17.1888
45.04	45.9058
45.26	2.55133
45.48	23.8151
45.7	9.70882
45.92	31.4219
46.14	506.304
46.36	179.009
46.58	34.5744
46.8	7.54344
47.02	19.4815
47.24	23.0043
47.46	22.7487
47.68	13.756
47.9	12.0288
48.12	4.18252
48.34	15.6853
48.56	22.3184
48.78	11.1039
49	14.5906
49.22	32.3789
49.44	5.20357
49.66	25.4927
49.88	15.6359
50.1	42.8849
50.32	460.514
50.54	72.3594
50.76	29.6198
50.98	14.5205
51.2	22.1183
51.42	9.16171
51.64	18.0488
51.86	6.54813
52.08	16.3969
52.3	13.029
52.52	32.2749
52.74	18.4234
52.96	0.847733
53.18	30.1223
53.4	29.6407
53.62	39.7514
53.84	17.3904
54.06	16.6825
54.28	12.1706
54.5	17.7994
54.72	10.2718
54.94	1.593
55.16	23.2605
55.38	9.64242
55.6	21.6315
55.82	25.6753
56.04	16.2779
56.26	15.8676
56.48	29.7608
56.7	16.5276
56.92	7.97253
57.14	27.4103
57.36	6.81194
57.58	26.409
57.8	8.23748
58.02	20.1532
58.24	14.9634
58.46	6.80299
58.68	9.08176
58.9	22.7064
59.12	11.6949
59.34	8.51815
59.56	15.5674
59.78	2.25406
60	6.12601
60.22	7.11634
60.44	19.133
60.66	20.2521
60.88	16.5944
61.1	10.2879
61.32	10.6165
61.54	5.64452
61.76	46.0004
61.98	45.546
62.2	3.84946
62.42	18.4297
62.64	87.0392
62.86	58.2852
63.08	35.575
63.3	30.2452
63.52	15.5758
63.74	12.8247
63.96	5.69554
64.18	15.863
64.4	3.86037
64.62	24.2492
64.84	24.0997
65.06	19.9069
65.28	0.121483
65.5	41.3968
65.72	18.5446
65.94	17.401
66.16	17.0647
66.38	12.4746
66.6	7.21194
66.82	0.761787
67.04	3.86021
67.26	15.2518
67.48	2.96381
67.7	14.0615
67.92	17.9554
68.14	13.481
68.36	7.69025
68.58	29.3439
68.8	13.6279
69.02	23.2155
69.24	24.2658
69.46	6.51295
69.68	1.55801
69.9	23.0056
70.12	11.206
70.34	18.1811
70.56	63.9597
70.78	83.0238
71	24.6316
71.22	18.1986
71.44	10.3007
71.66	9.10344
71.88	19.866
72.1	30.1422
72.32	26.4201
72.54	14.684
72.76	15.1951
72.98	14.0053
73.2	20.4749
73.42	6.63008
73.64	15.609
73.86	1.97975
74.08	24.2991
74.3	27.6764
74.52	24.892
74.74	20.1304
74.96	20.9278
75.18	19.0594
75.4	38.0811
75.62	32.617
75.84	14.3872
76.06	10.4586
76.28	0.437523
76.5	11.6453
76.72	9.42978
76.94	14.9687
77.16	11.668
77.38	4.25951
77.6	0.179718
77.82	16.113
78.04	5.63934
78.26	15.4704
78.48	17.4378
78.7	27.5848
78.92	6.00063
79.14	32.4517
79.36	17.4383
79.58	39.048
79.8	17.9042
80.02	22.7537
80.24	11.83
80.46	21.4867
80.68	14.2519
80.9	14.9816
81.12	17.8142
81.34	30.247
81.56	15.3314
81.78	14.1209
82	12.0732
82.22	13.8048
82.44	14.0564
82.66	19.0033
82.88	0.283249
83.1	31.0037
83.32	5.34908
83.54	20.2325
83.76	38.4291
83.98	46.5567
84.2	24.4379
84.42	38.9519
84.64	30.4785
84.86	32.5946
85.08	11.2723
85.3	29.1225
85.52	19.9363
85.74	8.65788
85.96	31.6284
86.18	16.9729
86.4	13.7924
86.62	23.5921
86.84	13.0102
87.06	9.71523
87.28	0.664383
87.5	7.97166
87.72	3.75088
87.94	12.076
88.16	1.03761
88.38	31.1785
88.6	15.8198
88.82	24.0577
89.04	28.8045
89.26	16.1422
89.48	17.2901
89.7	20.8006
89.92	23.1725
