Measurement: Powder, Xray Data XY Processed
Mineral: Nitratine
Rruff sample: R050394
Ideal chemistry: NaN^5+^O_3_
Locality: Tarapaca, Chile
Source: Mark Candee
Description: Colorless coarse powder
Diffraction sample description: Powder, mixed with halite, a = 5.6417
Measured chemistry: Na_1.00_NO_3_ ; = darker grains. The lighter grains are NaCl ; N not analyzed but estimated by difference and stiochiometry
Cell parameters: a: 5.0716(2) b: 5.0716(2) c: 16.834(1) alpha: 90 beta: 90 gamma: 120 volume: 374.97(4) crystal system: hexagonal
x	intensity
5	0
5.22	3.12077
5.44	7.97298
5.66	4.50456
5.88	6.45802
6.1	3.68825
6.32	7.05542
6.54	7.56358
6.76	22.36
6.98	14.8148
7.2	11.8789
7.42	6.59546
7.64	1.56539
7.86	9.43435
8.08	3.27599
8.3	1.88345
8.52	0.619452
8.74	5.11091
8.96	4.31874
9.18	6.23414
9.4	3.38028
9.62	17.1099
9.84	7.28071
10.06	9.39714
10.28	11.1436
10.5	1.43178
10.72	1.8714
10.94	4.85437
11.16	3.95943
11.38	10.0889
11.6	3.21889
11.82	4.26778
12.04	4.35802
12.26	4.60029
12.48	3.64629
12.7	9.54905
12.92	1.65587
13.14	5.46504
13.36	8.64849
13.58	0.378123
13.8	2.86142
14.02	6.10332
14.24	1.28295
14.46	3.32287
14.68	10.1568
14.9	4.95844
15.12	6.96865
15.34	0.045033
15.56	1.20012
15.78	1.99554
16	6.92456
16.22	5.16428
16.44	7.00742
16.66	2.91995
16.88	2.98888
17.1	0.074276
17.32	1.2357
17.54	4.42749
17.76	7.55556
17.98	5.48755
18.2	3.50838
18.42	9.62982
18.64	6.32263
18.86	2.69349
19.08	2.71444
19.3	6.32441
19.52	3.4264
19.74	6.33859
19.96	14.2667
20.18	6.32622
20.4	4.16438
20.62	6.29009
20.84	7.29725
21.06	1.36609
21.28	11.3287
21.5	4.40248
21.72	3.34404
21.94	4.12297
22.16	5.11339
22.38	6.88686
22.6	0.608635
22.82	40.564
23.04	0.577355
23.26	3.34406
23.48	6.1335
23.7	10.4534
23.92	7.38964
24.14	0.534302
24.36	6.40418
24.58	5.42435
24.8	2.23733
25.02	0.694562
25.24	13.515
25.46	17.4738
25.68	9.19859
25.9	5.09975
26.12	10.498
26.34	2.90945
26.56	15.0373
26.78	7.25289
27	5.62507
27.22	8.32106
27.44	60.8953
27.66	7.68436
27.88	3.11726
28.1	9.74247
28.32	12.3229
28.54	13.0316
28.76	0.217225
28.98	15.2146
29.2	26.2291
29.42	560.151
29.64	33.2781
29.86	0.365281
30.08	4.12015
30.3	2.98121
30.52	1.782
30.74	0.598001
30.96	8.43055
31.18	6.30091
31.4	3.91569
31.62	268.43
31.84	275.364
32.06	35.5889
32.28	10.9569
32.5	1.5714
32.72	9.06078
32.94	2.67081
33.16	0.757142
33.38	2.44846
33.6	9.07326
33.82	3.56394
34.04	6.96389
34.26	3.86442
34.48	1.05074
34.7	4.03991
34.92	6.15179
35.14	7.49268
35.36	32.6467
35.58	12.5528
35.8	5.53463
36.02	3.89076
36.24	1.21204
36.46	5.34546
36.68	3.81164
36.9	6.1869
37.12	1.67415
37.34	6.28774
37.56	7.18361
37.78	0.191755
38	1.05631
38.22	9.97686
38.44	13.7917
38.66	8.85048
38.88	55.8969
39.1	46.7751
39.32	9.51716
39.54	3.41012
39.76	1.29677
39.98	5.19975
40.2	4.26296
40.42	9.27864
40.64	7.92538
40.86	8.70058
41.08	11.6889
41.3	4.5972
41.52	9.23583
41.74	7.18053
41.96	5.35133
42.18	9.31238
42.4	7.17406
42.62	39.5138
42.84	0.543221
43.06	3.46263
43.28	11.6328
43.5	3.39853
43.72	10.538
43.94	12.3021
44.16	11.9935
44.38	7.47463
44.6	2.15154
44.82	4.63628
45.04	4.21238
45.26	29.7004
45.48	297.679
45.7	62.2288
45.92	14.1161
46.14	6.06897
46.36	3.2082
46.58	17.2112
46.8	4.23375
47.02	7.35497
47.24	3.48957
47.46	3.45245
47.68	11.5961
47.9	76.7649
48.12	24.5093
48.34	38.316
48.56	13.8632
48.78	3.12524
49	4.7391
49.22	3.11652
49.44	9.45004
49.66	4.90925
49.88	10.2509
50.1	4.51441
50.32	1.60916
50.54	7.69749
50.76	6.99535
50.98	11.9104
51.2	4.21153
51.42	7.13751
51.64	0.319908
51.86	0.512357
52.08	4.46229
52.3	2.59478
52.52	0.719414
52.74	3.73297
52.96	4.48686
53.18	8.35651
53.4	4.48253
53.62	3.29935
53.84	16.262
54.06	7.26062
54.28	3.98543
54.5	2.78814
54.72	3.46047
54.94	1.11671
55.16	8.90114
55.38	6.70634
55.6	29.4668
55.82	10.18
56.04	6.07765
56.26	9.19117
56.48	114.439
56.7	26.7764
56.92	11.0634
57.14	2.44225
57.36	6.79957
57.58	0.379481
57.8	3.92976
58.02	2.30693
58.24	5.62201
58.46	3.79543
58.68	4.64365
58.9	0.546693
59.12	3.7141
59.34	8.65817
59.56	4.72547
59.78	14.5461
60	5.38953
60.22	2.06602
60.44	2.00105
60.66	1.80551
60.88	0.075837
61.1	2.97439
61.32	7.92005
61.54	10.6662
61.76	18.8731
61.98	1.10658
62.2	6.88721
62.42	5.82904
62.64	1.7311
62.86	0.862213
63.08	1.13653
63.3	0.739713
63.52	17.9114
63.74	9.12635
63.96	0.787501
64.18	8.97871
64.4	6.74171
64.62	2.93533
64.84	2.86315
65.06	3.77678
65.28	0.621423
65.5	0.438262
65.72	5.26875
65.94	6.20054
66.16	18.1264
66.38	20.2579
66.6	18.2914
66.82	9.41283
67.04	6.44733
67.26	0.454788
67.48	7.64591
67.7	2.74791
67.92	0.857736
68.14	1.99821
68.36	2.05047
68.58	5.10778
68.8	4.25424
69.02	2.36216
69.24	6.4261
69.46	1.31405
69.68	1.60087
69.9	0.400845
70.12	6.66936
70.34	5.68237
70.56	3.89492
70.78	4.92416
71	4.76335
71.22	6.61242
71.44	3.57647
71.66	5.42281
71.88	6.38377
72.1	3.28193
72.32	4.02461
72.54	5.90606
72.76	1.72301
72.98	6.76624
73.2	8.57414
73.42	4.66587
73.64	8.49443
73.86	5.34058
74.08	5.28363
74.3	0.84689
74.52	4.09564
74.74	6.08007
74.96	13.2295
75.18	60.1776
75.4	56.353
75.62	18.4399
75.84	6.42173
76.06	6.78305
76.28	7.98509
76.5	7.31535
76.72	5.50406
76.94	5.69131
77.16	4.9922
77.38	7.04844
77.6	2.99289
77.82	3.14668
78.04	4.20679
78.26	4.33946
78.48	2.38087
78.7	3.39155
78.92	0.310958
79.14	2.36633
79.36	8.34806
79.58	10.2104
79.8	4.13394
80.02	4.07501
80.24	7.84668
80.46	1.958
80.68	3.84544
80.9	3.7737
81.12	0.75977
81.34	3.66947
81.56	4.72108
81.78	5.79202
82	9.91094
82.22	7.09042
82.44	2.9047
82.66	8.85532
82.88	4.59163
83.1	1.37977
83.32	5.25134
83.54	4.14487
83.76	11.3121
83.98	33.2144
84.2	16.9688
84.42	7.06594
84.64	0.059367
84.86	3.12025
85.08	2.35204
85.3	2.49654
85.52	1.682
85.74	3.02806
85.96	5.418
86.18	2.56578
86.4	6.63281
86.62	3.89397
86.84	1.07701
87.06	5.08014
87.28	3.11528
87.5	0.230065
87.72	4.33841
87.94	4.46995
88.16	4.40964
88.38	7.52978
88.6	4.43948
88.82	1.4181
89.04	5.33373
89.26	1.39625
89.48	6.60174
89.7	4.82982
89.92	6.11784
