Measurement: Powder, Xray Data XY Processed
Mineral: Olmiite
Rruff sample: R050144
Ideal chemistry: CaMn^2+^SiO_3_(OH)_2_
Locality: N'Chwaning II mine, Kuruman, South Africa
Source: Rock Currier
Description: Tan colored prismatic crystals associated with fibrous bultfonteinite, R050088
Diffraction sample description: Powder
Measured chemistry: Ca_1.00_(Mn_0.98_Ca_0.02_)(Si_1.00_O_3_OH)(OH)
Cell parameters: a: 9.234(1) b: 9.068(3) c: 10.361(1) alpha: 90 beta: 90 gamma: 90 volume: 867.6(0) crystal system: orthorhombic
x	intensity
5	0
5.22	27.694
5.44	10.605
5.66	23.468
5.88	7.903
6.1	11.803
6.32	10.258
6.54	11.037
6.76	1.329
6.98	17.442
7.2	20.035
7.42	13.622
7.64	6.83
7.86	8.985
8.08	7.117
8.3	15.833
8.52	8.185
8.74	13.617
8.96	22.653
9.18	10.213
9.4	19.833
9.62	1.455
9.84	8.374
10.06	7.4
10.28	19.648
10.5	2.334
10.72	4.679
10.94	3.897
11.16	2.876
11.38	9.884
11.6	3.243
11.82	21.138
12.04	2.423
12.26	1.143
12.48	9.901
12.7	8.97
12.92	9.089
13.14	15.985
13.36	12.076
13.58	5.305
13.8	15.805
14.02	24.843
14.24	18.92
14.46	10.433
14.68	14.647
14.9	8.841
15.12	11.045
15.34	11.576
15.56	12.746
15.78	11.903
16	11.843
16.22	6.553
16.44	2.36
16.66	9.568
16.88	2.681
17.1	30.014
17.32	10.097
17.54	7.266
17.76	14.212
17.98	23.194
18.2	17.048
18.42	10.393
18.64	4.312
18.86	5.583
19.08	12.811
19.3	5.767
19.52	7.322
19.74	15.146
19.96	15.896
20.18	19.782
20.4	16.456
20.62	10.274
20.84	7.795
21.06	11.689
21.28	10.214
21.5	104.324
21.72	13.837
21.94	29.895
22.16	3.183
22.38	14.199
22.6	3.365
22.82	9.064
23.04	5.588
23.26	64.827
23.48	14.336
23.7	1.668
23.92	18.009
24.14	23.289
24.36	3.143
24.58	7.174
24.8	8.887
25.02	3.307
25.24	12.023
25.46	11.878
25.68	0.46
25.9	49.174
26.12	14.827
26.34	1.724
26.56	5.108
26.78	5.487
27	3.582
27.22	17.3
27.44	11.467
27.66	71.027
27.88	229.658
28.1	6.818
28.32	1.543
28.54	10.923
28.76	7.156
28.98	8.424
29.2	9.554
29.42	14.24
29.64	4.757
29.86	6.32
30.08	0.368
30.3	4.414
30.52	5.122
30.74	1.875
30.96	24.091
31.18	12.956
31.4	16.699
31.62	14.598
31.84	75.526
32.06	20.953
32.28	31.716
32.5	34.791
32.72	21.571
32.94	3.768
33.16	18.668
33.38	9.312
33.6	16.784
33.82	31.443
34.04	31.849
34.26	14.397
34.48	16.48
34.7	12.012
34.92	6.617
35.14	28.222
35.36	31.943
35.58	23.638
35.8	16.302
36.02	5.547
36.24	1.772
36.46	9.344
36.68	8.026
36.9	18.745
37.12	3.075
37.34	16.916
37.56	21.513
37.78	6.563
38	72.622
38.22	71.696
38.44	2.052
38.66	8.199
38.88	11.418
39.1	7.326
39.32	0.75
39.54	11.772
39.76	12.285
39.98	19.923
40.2	11.594
40.42	2.507
40.64	16.339
40.86	19.622
41.08	0.84
41.3	16.573
41.52	17.712
41.74	7.607
41.96	9.376
42.18	5.593
42.4	10.299
42.62	5.161
42.84	21.622
43.06	11.614
43.28	2.242
43.5	6.476
43.72	12.735
43.94	20.835
44.16	17.151
44.38	23.001
44.6	29.074
44.82	25.772
45.04	2.979
45.26	12.377
45.48	22.167
45.7	10.477
45.92	0.498
46.14	13.085
46.36	2.408
46.58	8.888
46.8	9.513
47.02	24.833
47.24	16.229
47.46	25.666
47.68	4.216
47.9	12.906
48.12	11.517
48.34	11.415
48.56	13.345
48.78	5.934
49	5.482
49.22	1.133
49.44	9.289
49.66	0.453
49.88	3.203
50.1	8.433
50.32	20.784
50.54	12.896
50.76	5.191
50.98	13.835
51.2	22.404
51.42	15.073
51.64	1.195
51.86	10.212
52.08	27.123
52.3	25.62
52.52	20.644
52.74	0.709
52.96	19.647
53.18	6.337
53.4	2.307
53.62	1.24
53.84	12.439
54.06	16.569
54.28	35.622
54.5	13.777
54.72	30.531
54.94	22.872
55.16	20.555
55.38	11.82
55.6	8.017
55.82	5.182
56.04	3.326
56.26	5.687
56.48	10.397
56.7	14.621
56.92	22.547
57.14	24.036
57.36	12.225
57.58	15.133
57.8	1.98
58.02	13.5
58.24	16.496
58.46	14.544
58.68	6.084
58.9	14.06
59.12	20.926
59.34	4.059
59.56	1.264
59.78	19.714
60	8.562
60.22	12.682
60.44	14.178
60.66	4.736
60.88	17.508
61.1	6.742
61.32	7.906
61.54	20.834
61.76	7.892
61.98	13.05
62.2	17.002
62.42	6.191
62.64	11.364
62.86	2.361
63.08	9.648
63.3	8.696
63.52	11.454
63.74	4.411
63.96	16.033
64.18	5.143
64.4	25.601
64.62	9.753
64.84	5.86
65.06	3.87
65.28	8.278
65.5	3.724
65.72	7.217
65.94	12.834
66.16	13.383
66.38	15.963
66.6	6.884
66.82	21.907
67.04	0.447
67.26	25.691
67.48	11.798
67.7	9.804
67.92	14.902
68.14	4.785
68.36	19.857
68.58	0.489
68.8	12.357
69.02	21.116
69.24	12.243
69.46	4.929
69.68	7.998
69.9	21.512
70.12	12.251
70.34	6.222
70.56	15.306
70.78	11.116
71	27.127
71.22	10.656
71.44	5.752
71.66	12.264
71.88	8.005
72.1	11.37
72.32	4.746
72.54	9.162
72.76	14.11
72.98	8.095
73.2	14.914
73.42	5.478
73.64	11.538
73.86	14.678
74.08	20.004
74.3	21.131
74.52	22.709
74.74	9.783
74.96	0.479
75.18	21.555
75.4	12.612
75.62	14.52
75.84	0.019
76.06	1.187
76.28	6.85
76.5	15.08
76.72	26.806
76.94	14.775
77.16	17.159
77.38	4.039
77.6	10.288
77.82	4.188
78.04	17.985
78.26	9.822
78.48	0.869
78.7	6.777
78.92	4.989
79.14	2.154
79.36	8.571
79.58	15.577
79.8	7.975
80.02	2.975
80.24	1.334
80.46	13.468
80.68	16.832
80.9	5.763
81.12	0.726
81.34	9.885
81.56	5.769
81.78	12.261
82	11.454
82.22	18.06
82.44	15.806
82.66	32.999
82.88	25.867
83.1	12.712
83.32	7.619
83.54	17.995
83.76	5.903
83.98	13.76
84.2	9.849
84.42	4.274
84.64	12.636
84.86	7.401
85.08	20.647
85.3	1.523
85.52	16.194
85.74	0.784
85.96	6.614
86.18	10.44
86.4	10.629
86.62	5.223
86.84	0.646
87.06	7.633
87.28	9.089
87.5	7.526
87.72	23.719
87.94	20.361
88.16	2.82
88.38	0.118
88.6	2.591
88.82	16.958
89.04	13.682
89.26	13.158
89.48	7.203
89.7	12.099
89.92	12.283
