Measurement: Powder, Xray Data XY Processed
Mineral: Orthoclase
Rruff sample: R060077
Ideal chemistry: KAlSi_3_O_8_
Locality: pegmatite near Minh Tien, 15 km south of Luc Yen, Vietnam
Source: Marcus Origlieri
Description: Green fragment. Crystal structure determined to demonstrate that it is orthoclase
Diffraction sample description: Powder
Measured chemistry: (K_0.88_Na_0.12_)AlSi_3_O_8_
Cell parameters: a: 8.5832(7) b: 13.0143(6) c: 7.2058(3) alpha: 90 beta: 116.089(4) gamma: 90 volume: 722.91(5) crystal system: monoclinic
x	intensity
5	0
5.22	16.709
5.44	15.798
5.66	6.649
5.88	22.074
6.1	31.229
6.32	18.486
6.54	3.989
6.76	4.809
6.98	7.595
7.2	10.354
7.42	1.156
7.64	3.645
7.86	1.924
8.08	9.221
8.3	4.347
8.52	5.597
8.74	1.619
8.96	2.774
9.18	6.891
9.4	0.149
9.62	0.796
9.84	0.392
10.06	8.593
10.28	3.613
10.5	6.667
10.72	0.277
10.94	3.038
11.16	7.196
11.38	5.397
11.6	2.408
11.82	1.27
12.04	0.214
12.26	6.922
12.48	3.272
12.7	1.624
12.92	3.457
13.14	10.535
13.36	5.165
13.58	1.011
13.8	19.861
14.02	2.863
14.24	1.833
14.46	2.405
14.68	3.528
14.9	1.224
15.12	15.982
15.34	0.111
15.56	9.321
15.78	12.449
16	5.545
16.22	3.712
16.44	1.817
16.66	2.698
16.88	1.64
17.1	2.05
17.32	8.051
17.54	12.048
17.76	4.573
17.98	3.413
18.2	3.602
18.42	4.672
18.64	3.72
18.86	4.203
19.08	13.961
19.3	6.071
19.52	5.761
19.74	1.924
19.96	5.867
20.18	6.519
20.4	13.562
20.62	5.963
20.84	0.849
21.06	74.269
21.28	13.128
21.5	1.808
21.72	1.455
21.94	3.335
22.16	5.961
22.38	3.692
22.6	25.342
22.82	5.48
23.04	5.216
23.26	15.029
23.48	13.628
23.7	130.526
23.92	7.641
24.14	1.581
24.36	11.758
24.58	11.672
24.8	7.584
25.02	0.381
25.24	23.735
25.46	2.258
25.68	29.848
25.9	6.646
26.12	0.469
26.34	1.117
26.56	4.948
26.78	7.549
27	238.559
27.22	150.72
27.44	15.797
27.66	412.984
27.88	14.534
28.1	1.989
28.32	0.6
28.54	5.667
28.76	4.912
28.98	0.132
29.2	5.457
29.42	0.524
29.64	9.453
29.86	37.267
30.08	22.994
30.3	12.813
30.52	28.01
30.74	9.202
30.96	118.541
31.18	4.759
31.4	0.014
31.62	7.166
31.84	4.651
32.06	4.121
32.28	6.354
32.5	42.55
32.72	6.563
32.94	2.351
33.16	5.37
33.38	0.137
33.6	2.023
33.82	3.892
34.04	0.348
34.26	10.358
34.48	37.372
34.7	4.258
34.92	68.412
35.14	14.275
35.36	10.52
35.58	0.511
35.8	15.739
36.02	3.004
36.24	11.203
36.46	4.533
36.68	1.739
36.9	2.622
37.12	0.078
37.34	16.133
37.56	10.489
37.78	21.383
38	4.475
38.22	7.62
38.44	3.765
38.66	0.203
38.88	6.672
39.1	0.886
39.32	2.84
39.54	7.682
39.76	6.67
39.98	3.324
40.2	7.375
40.42	6.19
40.64	3.762
40.86	7.437
41.08	10.304
41.3	3.295
41.52	1.876
41.74	20.584
41.96	18.353
42.18	2.461
42.4	0.489
42.62	55.299
42.84	14.363
43.06	1.474
43.28	2.682
43.5	3.087
43.72	3.238
43.94	18.47
44.16	24.594
44.38	2.611
44.6	3.483
44.82	2.645
45.04	8.638
45.26	17.596
45.48	2.543
45.7	2.75
45.92	5.502
46.14	18.108
46.36	5.01
46.58	8.95
46.8	2.822
47.02	2.775
47.24	7.622
47.46	8.637
47.68	10.145
47.9	2.048
48.12	7.533
48.34	7.387
48.56	5.288
48.78	0.826
49	2.051
49.22	16.016
49.44	3.712
49.66	8.639
49.88	4.518
50.1	7.067
50.32	3.448
50.54	6.551
50.76	80.622
50.98	12.156
51.2	4.38
51.42	7.599
51.64	13.925
51.86	2.312
52.08	4.626
52.3	3.854
52.52	8.934
52.74	1.098
52.96	6.263
53.18	4.5
53.4	6.461
53.62	4.611
53.84	5.645
54.06	13.463
54.28	5.473
54.5	7.445
54.72	4.582
54.94	11.472
55.16	5.469
55.38	2.388
55.6	2.108
55.82	3.809
56.04	3.806
56.26	4.893
56.48	33.73
56.7	15.758
56.92	7.705
57.14	7.715
57.36	2.03
57.58	8.871
57.8	8.966
58.02	24.149
58.24	7.163
58.46	1.355
58.68	5.372
58.9	40.852
59.12	11.77
59.34	18.701
59.56	12.471
59.78	2.986
60	2.815
60.22	3.579
60.44	13.4
60.66	10.216
60.88	4.901
61.1	0.375
61.32	15.349
61.54	2.317
61.76	1.418
61.98	92.405
62.2	21.066
62.42	4.294
62.64	2.558
62.86	3.553
63.08	5.573
63.3	2.407
63.52	4.581
63.74	5.226
63.96	6.048
64.18	13.892
64.4	4.547
64.62	1.144
64.84	19.928
65.06	18.049
65.28	13.276
65.5	5.282
65.72	0.704
65.94	0.549
66.16	6.689
66.38	5.757
66.6	17.82
66.82	15.955
67.04	1.808
67.26	0.104
67.48	6.776
67.7	10.839
67.92	1.036
68.14	4.089
68.36	0.648
68.58	0.656
68.8	4.16
69.02	5.383
69.24	2.548
69.46	0.243
69.68	6.957
69.9	0.866
70.12	6.288
70.34	7.396
70.56	3.143
70.78	3.887
71	12.532
71.22	4.14
71.44	1.79
71.66	3.414
71.88	17.087
72.1	8.651
72.32	9.35
72.54	3.605
72.76	4.171
72.98	12.962
73.2	0.811
73.42	0.706
73.64	13.636
73.86	4.993
74.08	8.204
74.3	12.326
74.52	3.442
74.74	4.724
74.96	0.163
75.18	5.674
75.4	0.177
75.62	5.553
75.84	4.001
76.06	5.246
76.28	9.611
76.5	4.798
76.72	1.119
76.94	11.413
77.16	1.578
77.38	1.414
77.6	3.404
77.82	7.257
78.04	0.177
78.26	2.127
78.48	3.08
78.7	3.722
78.92	0.599
79.14	1.412
79.36	4.236
79.58	5.142
79.8	9.269
80.02	0.288
80.24	7.594
80.46	6.543
80.68	5.63
80.9	0.537
81.12	5.715
81.34	3.805
81.56	5.822
81.78	12.137
82	7.365
82.22	2.218
82.44	3.133
82.66	1.764
82.88	1.661
83.1	2.604
83.32	6.442
83.54	0.227
83.76	5.108
83.98	4.045
84.2	3.661
84.42	6.601
84.64	0.456
84.86	10.575
85.08	10.907
85.3	6.029
85.52	0.928
85.74	0.268
85.96	3.625
86.18	3.774
86.4	0.108
86.62	6.963
86.84	2.796
87.06	0.845
87.28	1.773
87.5	2.594
87.72	0.274
87.94	2.748
88.16	4.749
88.38	3.605
88.6	20.673
88.82	4.91
89.04	3.088
89.26	5.392
89.48	2.527
89.7	1.988
89.92	0.146
