Measurement: Powder, Xray Data XY Processed
Mineral: Orthoclase
Rruff sample: R050367
Ideal chemistry: KAlSi_3_O_8_
Locality: Pazunseik, Mandalay Division, Burma
Source: Marcus Origlieri
Description: Green crystal associated with topaz. Single-crystal structure refinement was conducted to demonstrate that it is orthoclase.
Diffraction sample description: Powder
Measured chemistry: (K_0.90_Na_0.10_)_Î£=1_Al_1.00_Si_3.00_O_8_; trace amounts of Fe
Cell parameters: a: 8.5949(4) b: 12.9830(4) c: 7.2063(3) alpha: 90 beta: 116.057(3) gamma: 90 volume: 722.40(4) crystal system: monoclinic
x	intensity
5	0
5.22	18.2873
5.44	7.27978
5.66	10.8338
5.88	5.66083
6.1	19.697
6.32	7.67536
6.54	1.325
6.76	15.1522
6.98	2.44147
7.2	8.38739
7.42	4.27033
7.64	3.98109
7.86	6.64988
8.08	1.03465
8.3	11.3171
8.52	2.6211
8.74	13.1092
8.96	2.45638
9.18	3.83051
9.4	11.8386
9.62	0.686213
9.84	5.76304
10.06	5.9246
10.28	6.26105
10.5	1.45107
10.72	7.75659
10.94	4.62132
11.16	7.71742
11.38	13.8333
11.6	6.70738
11.82	7.57869
12.04	5.34912
12.26	12.2198
12.48	11.0965
12.7	0.2405
12.92	4.53495
13.14	6.22129
13.36	28.315
13.58	0.477236
13.8	5.55405
14.02	8.51498
14.24	6.51467
14.46	9.7725
14.68	2.56207
14.9	11.8303
15.12	40.2233
15.34	10.4374
15.56	11.5307
15.78	9.42365
16	2.52094
16.22	6.51343
16.44	12.7444
16.66	13.7163
16.88	9.38982
17.1	5.12454
17.32	14.0585
17.54	2.9495
17.76	5.99183
17.98	1.18039
18.2	7.14429
18.42	3.95282
18.64	0.903552
18.86	2.97697
19.08	2.95211
19.3	14.1589
19.52	2.08019
19.74	5.88269
19.96	6.61032
20.18	19.445
20.4	5.49529
20.62	7.74015
20.84	22.67
21.06	99.4342
21.28	8.66339
21.5	4.14773
21.72	2.27611
21.94	2.00349
22.16	5.35975
22.38	5.67977
22.6	45.8447
22.82	2.92155
23.04	29.4009
23.26	10.0192
23.48	29.3872
23.7	37.9409
23.92	9.92887
24.14	2.65056
24.36	1.22631
24.58	36.067
24.8	14.0101
25.02	7.72078
25.24	14.1327
25.46	5.93075
25.68	293.442
25.9	7.57538
26.12	0.245605
26.34	8.55957
26.56	13.6189
26.78	52.7369
27	109.639
27.22	28.1637
27.44	60.0359
27.66	153.975
27.88	4.73884
28.1	18.1746
28.32	1.65038
28.54	4.70816
28.76	5.75404
28.98	8.77643
29.2	4.72673
29.42	7.65552
29.64	18.433
29.86	248.029
30.08	10.8368
30.3	8.49294
30.52	21.7506
30.74	15.0029
30.96	59.3424
31.18	1.15753
31.4	3.45016
31.62	0.161028
31.84	2.93632
32.06	9.69881
32.28	25.2548
32.5	10.2052
32.72	5.82008
32.94	12.7779
33.16	2.77567
33.38	2.12507
33.6	5.76661
33.82	10.5051
34.04	14.0607
34.26	11.6395
34.48	34.2107
34.7	12.2508
34.92	74.7722
35.14	53.398
35.36	3.44817
35.58	28.1662
35.8	7.94653
36.02	6.40247
36.24	7.83685
36.46	5.32435
36.68	5.78529
36.9	2.60756
37.12	4.78557
37.34	14.028
37.56	10.2495
37.78	22.2353
38	4.33718
38.22	4.19629
38.44	6.43693
38.66	14.5133
38.88	0.829233
39.1	10.0805
39.32	2.76131
39.54	5.84079
39.76	2.70173
39.98	3.55388
40.2	6.31625
40.42	10.0823
40.64	13.4317
40.86	11.0655
41.08	18.2223
41.3	10.5952
41.52	2.24869
41.74	97.0043
41.96	4.0914
42.18	12.2501
42.4	11.3573
42.62	15.2608
42.84	15.4337
43.06	4.51391
43.28	5.98715
43.5	21.7226
43.72	22.8006
43.94	0.139583
44.16	12.0059
44.38	12.5813
44.6	5.06979
44.82	8.89246
45.04	34.9011
45.26	7.60956
45.48	4.85138
45.7	3.49146
45.92	24.4036
46.14	13.3129
46.36	11.289
46.58	4.32472
46.8	1.44492
47.02	12.9777
47.24	10.9876
47.46	8.35183
47.68	1.80697
47.9	10.5069
48.12	10.352
48.34	9.38969
48.56	2.35715
48.78	15.2233
49	7.13547
49.22	11.1068
49.44	6.89857
49.66	5.77302
49.88	17.1233
50.1	2.74252
50.32	0.270207
50.54	13.7793
50.76	68.162
50.98	7.79861
51.2	6.16775
51.42	4.27284
51.64	0.536504
51.86	2.03486
52.08	6.42845
52.3	9.02593
52.52	6.47731
52.74	12.8317
52.96	8.27132
53.18	10.3336
53.4	1.24312
53.62	3.56132
53.84	6.66998
54.06	8.55473
54.28	2.79856
54.5	4.76182
54.72	19.4505
54.94	4.43565
55.16	8.55749
55.38	2.26384
55.6	0.735291
55.82	16.5449
56.04	1.56527
56.26	6.46573
56.48	10.9718
56.7	10.9089
56.92	0.948713
57.14	15.4329
57.36	1.40995
57.58	17.5505
57.8	16.6676
58.02	5.82146
58.24	6.62495
58.46	3.90766
58.68	9.96767
58.9	15.3535
59.12	6.56045
59.34	8.49137
59.56	1.06238
59.78	5.82679
60	2.77268
60.22	8.70357
60.44	10.8073
60.66	1.85055
60.88	2.62287
61.1	25.5559
61.32	10.3403
61.54	2.31899
61.76	1.55096
61.98	35.9743
62.2	26.3562
62.42	9.50415
62.64	7.55936
62.86	3.43553
63.08	6.31353
63.3	6.31834
63.52	4.14205
63.74	13.9556
63.96	12.6441
64.18	17.3799
64.4	8.81051
64.62	7.16494
64.84	12.3881
65.06	11.1358
65.28	5.02224
65.5	9.94727
65.72	9.03568
65.94	2.9352
66.16	2.16003
66.38	6.30309
66.6	8.36362
66.82	4.32443
67.04	6.41236
67.26	2.17009
67.48	0.67643
67.7	11.6788
67.92	4.73775
68.14	2.96628
68.36	8.25466
68.58	3.74444
68.8	11.2198
69.02	0.819067
69.24	2.04232
69.46	2.1504
69.68	7.36575
69.9	6.70004
70.12	16.8902
70.34	8.94871
70.56	5.02402
70.78	5.61665
71	2.26106
71.22	8.82728
71.44	1.71254
71.66	3.9694
71.88	4.68676
72.1	3.73198
72.32	4.18851
72.54	6.71528
72.76	7.2903
72.98	6.94342
73.2	4.83137
73.42	6.65947
73.64	13.6091
73.86	6.63346
74.08	8.74456
74.3	2.77651
74.52	11.5707
74.74	2.68109
74.96	1.58471
75.18	2.83835
75.4	0.324945
75.62	5.82336
75.84	7.31088
76.06	7.73375
76.28	10.9659
76.5	4.4553
76.72	9.70763
76.94	3.90514
77.16	2.01711
77.38	1.63497
77.6	3.57088
77.82	5.59272
78.04	3.51953
78.26	3.34538
78.48	6.15893
78.7	7.42818
78.92	6.17413
79.14	4.10213
79.36	1.07503
79.58	8.22725
79.8	7.38554
80.02	10.3823
80.24	3.1848
80.46	7.1201
80.68	0.197462
80.9	10.2446
81.12	4.40378
81.34	1.46436
81.56	4.65099
81.78	4.91534
82	8.81279
82.22	6.71114
82.44	6.75655
82.66	1.97706
82.88	2.03606
83.1	4.91638
83.32	5.88765
83.54	12.4985
83.76	3.46012
83.98	10.5142
84.2	7.44103
84.42	3.42389
84.64	9.54308
84.86	3.6419
85.08	6.51182
85.3	1.60423
85.52	9.70588
85.74	1.08719
85.96	0.044525
86.18	0.351673
86.4	9.36445
86.62	5.45143
86.84	1.55926
87.06	1.56738
87.28	3.57103
87.5	2.75373
87.72	3.82277
87.94	1.89003
88.16	9.8843
88.38	9.83495
88.6	2.83933
88.82	3.86114
89.04	13.9339
89.26	8.17149
89.48	3.24885
89.7	8.71898
89.92	6.81476
