Measurement: Powder, Xray Data XY Processed
Mineral: Orthoclase
Rruff sample: R070001
Ideal chemistry: KAlSi_3_O_8_
Locality: Lengenbach Quarry, Binnental, Valais, Switzerland
Source: Michael Scott
Description: Colorless single crystal with a habit similar to adularia
Diffraction sample description: Powder, cell parameters are from single crystal
Measured chemistry: (K_0.92_Na_0.07_Ba_0.01_)_Σ=1_Al_1.01_Si_2.99_O_8_; darker core :  (K_0.91_Na_0.07_Ba_0.02_)_Σ=1_Al_1.02_Si_2.98_O_8_ ; lighter rim
Cell parameters: a: 8.5791(6) b: 13.0013(7) c: 7.1881(4) alpha: 90 beta: 115.991(5) gamma: 90 volume: 720.66(6) crystal system: monoclinic
x	intensity
5	0
5.22	0.187635
5.44	15.6505
5.66	17.198
5.88	8.02875
6.1	7.9401
6.32	18.6019
6.54	12.3396
6.76	6.23034
6.98	12.9962
7.2	15.1358
7.42	5.82449
7.64	0.731893
7.86	19.3179
8.08	12.6357
8.3	8.19557
8.52	5.47895
8.74	7.75744
8.96	9.92383
9.18	0.282545
9.4	4.49589
9.62	13.3071
9.84	1.49534
10.06	0.338271
10.28	1.12037
10.5	2.02429
10.72	5.20547
10.94	6.54083
11.16	1.75502
11.38	7.11111
11.6	5.14385
11.82	4.23576
12.04	5.43667
12.26	7.43966
12.48	1.15605
12.7	2.14904
12.92	0.124907
13.14	12.8374
13.36	36.6159
13.58	28.2991
13.8	11.1538
14.02	5.9067
14.24	7.16744
14.46	8.94594
14.68	6.16847
14.9	4.50174
15.12	24.5709
15.34	10.7086
15.56	9.869
15.78	11.8768
16	0.898244
16.22	4.14707
16.44	4.24858
16.66	8.94532
16.88	2.98031
17.1	2.8877
17.32	2.59673
17.54	1.67958
17.76	10.6595
17.98	3.57773
18.2	8.62612
18.42	4.99843
18.64	4.93387
18.86	4.41052
19.08	6.57798
19.3	14.8451
19.52	3.20984
19.74	0.069368
19.96	2.72501
20.18	11.6369
20.4	6.64399
20.62	11.6466
20.84	13.3478
21.06	128.234
21.28	3.58034
21.5	3.17673
21.72	7.80745
21.94	0.193631
22.16	7.70118
22.38	6.15292
22.6	102.54
22.82	2.00557
23.04	23.451
23.26	5.25768
23.48	207.292
23.7	38.9504
23.92	0.855332
24.14	10.4063
24.36	5.1969
24.58	49.7047
24.8	6.72726
25.02	7.70128
25.24	11.192
25.46	1.83621
25.68	241.534
25.9	4.42792
26.12	3.34855
26.34	4.02994
26.56	1.53296
26.78	118.991
27	129.922
27.22	82.6248
27.44	326.791
27.66	623.159
27.88	3.54172
28.1	14.2049
28.32	4.57589
28.54	6.47823
28.76	4.41638
28.98	1.37782
29.2	6.33196
29.42	1.10004
29.64	12.9666
29.86	279.75
30.08	6.42934
30.3	1.39249
30.52	35.0665
30.74	128.446
30.96	106.007
31.18	5.37711
31.4	1.7988
31.62	2.78613
31.84	4.2097
32.06	6.87583
32.28	19.2976
32.5	13.7415
32.72	2.94325
32.94	2.05002
33.16	5.12995
33.38	3.85973
33.6	9.76979
33.82	0.614292
34.04	11.3954
34.26	0.556026
34.48	48.3665
34.7	50.5637
34.92	37.0759
35.14	60.1678
35.36	10.2734
35.58	31.6995
35.8	14.649
36.02	4.90636
36.24	19.2114
36.46	12.5202
36.68	2.8132
36.9	4.11942
37.12	20.0544
37.34	20.5445
37.56	2.47441
37.78	17.1756
38	6.13143
38.22	1.16664
38.44	3.77046
38.66	8.21922
38.88	32.3995
39.1	2.3668
39.32	6.74159
39.54	14.6617
39.76	9.25006
39.98	6.0079
40.2	9.90709
40.42	5.05496
40.64	0.786723
40.86	23.8194
41.08	17.5906
41.3	9.11295
41.52	17.6014
41.74	87.1731
41.96	2.72314
42.18	8.87801
42.4	25.3237
42.62	31.3446
42.84	2.6247
43.06	7.938
43.28	11.4517
43.5	0.410122
43.72	35.3859
43.94	7.52109
44.16	11.6786
44.38	8.0808
44.6	2.0352
44.82	0.734176
45.04	19.6554
45.26	4.59259
45.48	2.86439
45.7	9.0435
45.92	45.7673
46.14	24.4996
46.36	15.6633
46.58	2.65065
46.8	7.24029
47.02	17.4337
47.24	22.4979
47.46	13.4412
47.68	9.62417
47.9	3.31933
48.12	4.19834
48.34	9.19071
48.56	8.1378
48.78	4.91968
49	17.751
49.22	35.6832
49.44	12.3683
49.66	26.1388
49.88	14.1442
50.1	0.083633
50.32	9.75227
50.54	30.9047
50.76	109.014
50.98	31.8434
51.2	11.2037
51.42	9.32774
51.64	14.1292
51.86	2.81687
52.08	8.32476
52.3	12.799
52.52	0.328427
52.74	0.196606
52.96	20.9967
53.18	8.43644
53.4	4.08451
53.62	7.19679
53.84	10.2266
54.06	3.5342
54.28	8.3258
54.5	10.1453
54.72	13.7641
54.94	16.6341
55.16	7.34609
55.38	1.09705
55.6	17.5479
55.82	10.4205
56.04	5.95469
56.26	13.939
56.48	25.6688
56.7	9.79685
56.92	1.13918
57.14	9.23245
57.36	8.49941
57.58	5.61625
57.8	14.7892
58.02	3.95758
58.24	0.334921
58.46	8.67736
58.68	18.1686
58.9	39.4216
59.12	11.0677
59.34	7.90744
59.56	3.47291
59.78	7.93584
60	3.63715
60.22	0.360579
60.44	16.226
60.66	10.032
60.88	11.4469
61.1	1.8431
61.32	2.06587
61.54	7.69161
61.76	26.1002
61.98	12.3146
62.2	14.1954
62.42	12.3611
62.64	3.38234
62.86	11.1556
63.08	1.01207
63.3	0.262194
63.52	1.42643
63.74	12.6782
63.96	16.8386
64.18	12.2454
64.4	9.88475
64.62	15.9703
64.84	29.9851
65.06	8.23058
65.28	9.48404
65.5	2.80464
65.72	3.03075
65.94	4.41993
66.16	4.81076
66.38	15.1362
66.6	20.448
66.82	4.32494
67.04	4.1653
67.26	1.30243
67.48	4.36784
67.7	15.4878
67.92	7.58692
68.14	2.19171
68.36	3.17844
68.58	4.5463
68.8	4.08522
69.02	6.19982
69.24	4.31724
69.46	12.2737
69.68	4.30797
69.9	3.51483
70.12	17.657
70.34	20.6541
70.56	6.80901
70.78	10.3422
71	13.8977
71.22	5.05448
71.44	1.6916
71.66	9.29834
71.88	14.6948
72.1	17.076
72.32	7.18468
72.54	10.8748
72.76	12.274
72.98	11.571
73.2	6.12932
73.42	18.0703
73.64	13.3227
73.86	0.478354
74.08	21.8298
74.3	8.20418
74.52	9.64281
74.74	4.1399
74.96	4.50241
75.18	11.2868
75.4	14.8383
75.62	13.4332
75.84	7.94629
76.06	1.26102
76.28	11.9759
76.5	6.3209
76.72	3.71369
76.94	7.29655
77.16	6.56548
77.38	4.90153
77.6	6.70331
77.82	5.76546
78.04	9.76264
78.26	1.59263
78.48	8.26253
78.7	9.71867
78.92	0.451838
79.14	3.4612
79.36	24.0059
79.58	15.7472
79.8	5.50909
80.02	4.99296
80.24	4.12723
80.46	12.938
80.68	5.0679
80.9	9.47673
81.12	1.83044
81.34	10.9308
81.56	6.20055
81.78	11.4589
82	1.4789
82.22	7.54451
82.44	0.556689
82.66	5.36636
82.88	8.23606
83.1	4.27099
83.32	1.82814
83.54	10.4345
83.76	5.16456
83.98	1.78834
84.2	15.5384
84.42	3.2141
84.64	14.207
84.86	3.19755
85.08	7.79498
85.3	1.91528
85.52	4.8551
85.74	3.23618
85.96	1.70287
86.18	1.88742
86.4	10.9276
86.62	8.02827
86.84	3.07467
87.06	7.06637
87.28	6.83454
87.5	9.55288
87.72	7.97952
87.94	4.0595
88.16	10.9582
88.38	1.80449
88.6	2.01804
88.82	4.23076
89.04	8.52862
89.26	5.91169
89.48	8.64437
89.7	6.10772
89.92	7.74381
