Measurement: Powder, Xray Data XY Processed
Mineral: Paravauxite
Rruff sample: R040179
Ideal chemistry: Fe^2+^Al_2_(PO_4_)_2_(OH)_2_8H_2_O
Locality: Mina Siglo XX, Llallagua, Bolivia
Source: University of Arizona Mineral Museum
Description: Colorless short prismatic crystals in subparallel groups
Diffraction sample description: Powder
Measured chemistry: (Fe_0.93_Mg_0.03_Mn_0.02_)Al_1.94_(P_2.05_O_4_)_2_((OH)_0.99_F_0.01_)_2_Â·8H_2_O
Cell parameters: a: 5.2293(9) b: 10.5504(8) c: 6.961(1) alpha: 106.85(2) beta: 110.75(1) gamma: 72.141(7) volume: 334.68(6) crystal system: triclinic
x	intensity
5	0
5.22	15.8209
5.44	7.03309
5.66	17.9558
5.88	14.8953
6.1	13.7925
6.32	16.8126
6.54	23.8276
6.76	16.9998
6.98	2.84305
7.2	14.0126
7.42	25.045
7.64	31.2326
7.86	18.2499
8.08	24.1291
8.3	8.94197
8.52	9.98374
8.74	54.1943
8.96	274.144
9.18	21.1863
9.4	11.3437
9.62	16.5897
9.84	17.457
10.06	17.2374
10.28	10.4493
10.5	7.64664
10.72	12.345
10.94	14.6165
11.16	19.3067
11.38	24.2316
11.6	3.58273
11.82	16.0369
12.04	5.46323
12.26	9.43812
12.48	35.348
12.7	27.044
12.92	6.68045
13.14	0.357513
13.36	2.18003
13.58	4.48064
13.8	72.1218
14.02	36.7096
14.24	27.5311
14.46	10.9571
14.68	9.65914
14.9	31.8673
15.12	20.7931
15.34	16.5073
15.56	21.5217
15.78	13.6444
16	19.1591
16.22	17.0602
16.44	14.3517
16.66	7.93834
16.88	12.9752
17.1	6.97546
17.32	2.68132
17.54	5.83901
17.76	10.2034
17.98	50.1507
18.2	4.10633
18.42	17.1706
18.64	254.154
18.86	43.4001
19.08	2.62824
19.3	7.97962
19.52	22.1261
19.74	6.29475
19.96	7.52747
20.18	6.25652
20.4	14.6489
20.62	24.3473
20.84	0.645683
21.06	15.3146
21.28	15.549
21.5	50.9453
21.72	17.6626
21.94	0.005989
22.16	16.3209
22.38	9.09048
22.6	44.8392
22.82	94.414
23.04	26.5919
23.26	16.8481
23.48	10.8337
23.7	19.9025
23.92	14.1257
24.14	19.2209
24.36	20.7883
24.58	74.2748
24.8	25.2086
25.02	22.9334
25.24	35.5937
25.46	25.2558
25.68	8.94794
25.9	8.42774
26.12	15.8749
26.34	13.2319
26.56	21.0291
26.78	2.93806
27	24.0745
27.22	50.7257
27.44	36.8892
27.66	7.50079
27.88	32.3889
28.1	110.171
28.32	55.4618
28.54	24.3408
28.76	17.5875
28.98	117.058
29.2	17.0561
29.42	23.0149
29.64	1.86543
29.86	14.6035
30.08	14.6742
30.3	4.71761
30.52	40.4562
30.74	1.12107
30.96	15.3829
31.18	10.2022
31.4	149.248
31.62	38.0359
31.84	16.4482
32.06	7.53985
32.28	11.5426
32.5	2.08308
32.72	18.426
32.94	15.3645
33.16	57.2576
33.38	3.58755
33.6	5.65171
33.82	15.4182
34.04	4.12277
34.26	3.37199
34.48	3.44788
34.7	70.1954
34.92	16.5306
35.14	13.5529
35.36	0.985977
35.58	8.73825
35.8	1.48328
36.02	24.9367
36.24	40.6048
36.46	42.2935
36.68	9.04115
36.9	10.5311
37.12	44.0808
37.34	36.1637
37.56	16.8416
37.78	71.9064
38	36.0018
38.22	19.4484
38.44	8.1797
38.66	12.2795
38.88	8.60524
39.1	20.1854
39.32	32.6296
39.54	26.724
39.76	71.8131
39.98	9.6301
40.2	25.441
40.42	19.7005
40.64	13.5843
40.86	19.4658
41.08	20.7717
41.3	16.192
41.52	20.6044
41.74	17.0268
41.96	5.16894
42.18	20.876
42.4	6.44868
42.62	19.9083
42.84	48.8473
43.06	9.80507
43.28	16.3036
43.5	2.13719
43.72	1.79289
43.94	10.7796
44.16	29.7089
44.38	1.77822
44.6	1.62832
44.82	17.3907
45.04	20.9196
45.26	27.298
45.48	0.629166
45.7	20.9871
45.92	20.4911
46.14	9.31116
46.36	19.4028
46.58	19.4758
46.8	3.24734
47.02	24.0974
47.24	6.06315
47.46	24.9153
47.68	15.8411
47.9	13.4023
48.12	21.5282
48.34	24.5653
48.56	12.2267
48.78	1.02762
49	5.92791
49.22	11.3033
49.44	35.2316
49.66	6.13633
49.88	25.0864
50.1	20.0117
50.32	27.0934
50.54	13.5221
50.76	24.8229
50.98	11.7806
51.2	18.9707
51.42	16.3339
51.64	23.8069
51.86	20.2726
52.08	25.2025
52.3	16.6836
52.52	7.98869
52.74	1.19572
52.96	24.5342
53.18	17.5069
53.4	19.4711
53.62	9.39664
53.84	19.3022
54.06	2.78349
54.28	15.0328
54.5	16.3228
54.72	18.6413
54.94	38.7571
55.16	9.96526
55.38	36.7212
55.6	5.22212
55.82	0.33577
56.04	32.7762
56.26	67.711
56.48	12.4641
56.7	32.5845
56.92	5.62483
57.14	24.2212
57.36	29.6702
57.58	38.3611
57.8	17.5562
58.02	14.5638
58.24	19.6236
58.46	13.0359
58.68	8.86185
58.9	39.8122
59.12	12.1761
59.34	2.64489
59.56	2.18353
59.78	19.3393
60	19.3494
60.22	18.1579
60.44	0.731728
60.66	2.00986
60.88	17.8707
61.1	22.84
61.32	7.21109
61.54	27.2551
61.76	17.8909
61.98	4.48983
62.2	11.4819
62.42	8.56742
62.64	22.0532
62.86	0.703568
63.08	4.77021
63.3	16.0657
63.52	5.49953
63.74	5.52968
63.96	24.8017
64.18	17.9815
64.4	7.71563
64.62	12.4984
64.84	14.5287
65.06	14.1737
65.28	18.5962
65.5	16.4211
65.72	28.156
65.94	19.6796
66.16	11.4609
66.38	10.3849
66.6	2.27729
66.82	5.81598
67.04	5.06281
67.26	22.9761
67.48	26.5601
67.7	15.3395
67.92	0.348
68.14	14.945
68.36	0.21315
68.58	13.1068
68.8	16.7644
69.02	1.22309
69.24	16.4481
69.46	15.1048
69.68	12.1653
69.9	7.23171
70.12	14.5955
70.34	19.279
70.56	3.85882
70.78	20.0512
71	15.7171
71.22	22.7004
71.44	29.5868
71.66	10.8255
71.88	14.1264
72.1	11.1735
72.32	20.8232
72.54	18.5447
72.76	16.5408
72.98	11.1024
73.2	24.9536
73.42	12.2147
73.64	17.1042
73.86	24.5943
74.08	13.8345
74.3	1.69692
74.52	13.9915
74.74	18.2661
74.96	6.46643
75.18	5.86726
75.4	7.5032
75.62	2.14792
75.84	21.4984
76.06	5.2857
76.28	7.21457
76.5	25.5467
76.72	15.6986
76.94	5.6015
77.16	5.05945
77.38	31.0246
77.6	4.80433
77.82	24.1104
78.04	21.8718
78.26	4.88046
78.48	11.4205
78.7	22.4888
78.92	31.6582
79.14	23.129
79.36	13.3158
79.58	16.7108
79.8	8.72578
80.02	7.02677
80.24	2.79467
80.46	16.6386
80.68	19.9368
80.9	22.3685
81.12	15.5942
81.34	22.4187
81.56	13.3071
81.78	3.82653
82	10.6115
82.22	9.30643
82.44	19.9489
82.66	0.751194
82.88	15.834
83.1	12.1109
83.32	25.7529
83.54	6.85172
83.76	20.3272
83.98	7.30543
84.2	20.0052
84.42	11.1102
84.64	1.30953
84.86	4.06567
85.08	0.145321
85.3	17.3311
85.52	8.01131
85.74	10.4563
85.96	18.582
86.18	6.60946
86.4	3.55148
86.62	12.6547
86.84	18.4574
87.06	4.50831
87.28	7.71485
87.5	13.0519
87.72	22.3056
87.94	7.30612
88.16	25.5403
88.38	15.0712
88.6	2.05371
88.82	22.4804
89.04	0.449665
89.26	14.8119
89.48	15.766
89.7	22.4407
89.92	1.27927
