Measurement: Powder, Xray Data XY Processed
Mineral: Paravauxite
Rruff sample: R050314
Ideal chemistry: Fe^2+^Al_2_(PO_4_)_2_(OH)_2_8H_2_O
Locality: Siglo XX mine, Llallagua, Bolivia
Source: Eugene Schlepp
Description: Pale green prismatic crystals
Diffraction sample description: Powder
Measured chemistry: (Fe^2+^_0.93_Mg_0.07_)_Σ=1_Al_2.00_(P_1.00_O_4_)_2_(OH)_2_·8H_2_O
Cell parameters: a: 5.2299(3) b: 10.5500(5) c: 6.9613(4) alpha: 106.854(6) beta: 110.735(3) gamma: 72.144(4) volume: 334.73(3) crystal system: triclinic
x	intensity
5	0
5.22	5.93764
5.44	24.26
5.66	24.3994
5.88	54.092
6.1	36.3902
6.32	21.754
6.54	21.4937
6.76	13.4231
6.98	9.89678
7.2	36.6098
7.42	13.9344
7.64	17.5215
7.86	18.5243
8.08	20.088
8.3	22.7084
8.52	2.45332
8.74	17.5256
8.96	125.191
9.18	12.2628
9.4	22.4409
9.62	23.8318
9.84	26.6478
10.06	30.8186
10.28	38.0621
10.5	43.4062
10.72	11.6819
10.94	16.5123
11.16	25.1654
11.38	7.67333
11.6	9.40367
11.82	17.6601
12.04	18.944
12.26	9.54234
12.48	4.59491
12.7	14.5478
12.92	14.3848
13.14	18.5114
13.36	4.36396
13.58	21.6847
13.8	66.299
14.02	29.2882
14.24	24.1235
14.46	15.8844
14.68	23.0428
14.9	28.2502
15.12	24.7953
15.34	26.6846
15.56	19.9037
15.78	14.0982
16	24.7465
16.22	6.3109
16.44	21.2197
16.66	9.48346
16.88	13.104
17.1	6.74567
17.32	0.522072
17.54	0.583778
17.76	9.52186
17.98	36.0428
18.2	9.1806
18.42	27.8259
18.64	124.704
18.86	18.1807
19.08	9.44016
19.3	10.1474
19.52	4.82875
19.74	4.38705
19.96	14.9421
20.18	25.75
20.4	4.3098
20.62	23.8251
20.84	20.351
21.06	25.4898
21.28	13.7198
21.5	37.9773
21.72	14.6159
21.94	8.60341
22.16	18.8655
22.38	25.4236
22.6	34.208
22.82	48.3702
23.04	20.5458
23.26	13.1338
23.48	8.4735
23.7	9.16145
23.92	21.5321
24.14	4.13245
24.36	20.3418
24.58	78.3408
24.8	24.8781
25.02	15.9224
25.24	19.4246
25.46	14.6459
25.68	8.91788
25.9	13.9725
26.12	13.9218
26.34	15.3981
26.56	14.4403
26.78	6.18131
27	12.7056
27.22	20.6015
27.44	20.6649
27.66	8.23679
27.88	51.4996
28.1	63.6692
28.32	30.6576
28.54	15.7598
28.76	2.89587
28.98	71.94
29.2	1.07916
29.42	25.3611
29.64	7.31004
29.86	0.850731
30.08	18.6874
30.3	10.7421
30.52	5.71021
30.74	18.9466
30.96	2.73657
31.18	24.8706
31.4	108.285
31.62	32.4548
31.84	2.94192
32.06	4.66483
32.28	3.39756
32.5	3.76971
32.72	23.3645
32.94	28.5383
33.16	38.5895
33.38	18.8604
33.6	7.97697
33.82	20.2211
34.04	12.2655
34.26	1.40569
34.48	22.0048
34.7	58.0144
34.92	21.7872
35.14	18.6967
35.36	8.9503
35.58	16.0238
35.8	19.2954
36.02	14.4924
36.24	8.53101
36.46	10.3371
36.68	32.4855
36.9	8.58048
37.12	3.90646
37.34	0.789223
37.56	29.3944
37.78	44.5033
38	34.7916
38.22	19.5599
38.44	1.0705
38.66	15.198
38.88	5.88184
39.1	6.37291
39.32	34.4108
39.54	6.31789
39.76	48.7689
39.98	30.2152
40.2	26.6244
40.42	19.077
40.64	11.3545
40.86	26.1037
41.08	14.5405
41.3	18.4446
41.52	19.0652
41.74	6.3391
41.96	5.59474
42.18	20.6733
42.4	12.1481
42.62	14.805
42.84	30.4892
43.06	18.0522
43.28	33.5142
43.5	8.19789
43.72	21.2378
43.94	15.3713
44.16	19.3699
44.38	19.422
44.6	16.6666
44.82	39.8689
45.04	19.0481
45.26	30.1639
45.48	0.187126
45.7	20.7216
45.92	20.4584
46.14	1.25166
46.36	0.162155
46.58	1.97687
46.8	16.5755
47.02	7.61053
47.24	8.85138
47.46	26.461
47.68	25.5457
47.9	15.3539
48.12	34.5033
48.34	15.0934
48.56	2.47983
48.78	3.04854
49	6.29933
49.22	6.13922
49.44	3.84997
49.66	15.6995
49.88	9.57068
50.1	7.91536
50.32	12.5753
50.54	16.9765
50.76	29.4976
50.98	0.720993
51.2	11.4825
51.42	1.55058
51.64	12.7328
51.86	22.4153
52.08	23
52.3	10.3965
52.52	19.6925
52.74	25.1019
52.96	34.5343
53.18	5.9659
53.4	8.32282
53.62	19.7878
53.84	10.9733
54.06	34.0779
54.28	12.6838
54.5	20.6044
54.72	23.2707
54.94	20.0315
55.16	22.9242
55.38	18.3271
55.6	29.5263
55.82	0.483028
56.04	13.484
56.26	32.2773
56.48	7.5637
56.7	28.6963
56.92	11.1415
57.14	0.211693
57.36	10.5124
57.58	22.5372
57.8	5.77114
58.02	11.1267
58.24	26.3319
58.46	24.9434
58.68	10.1157
58.9	17.8258
59.12	7.13458
59.34	7.9413
59.56	1.82571
59.78	9.68166
60	20.2594
60.22	8.01186
60.44	17.2435
60.66	3.00204
60.88	7.24951
61.1	20.9944
61.32	3.25914
61.54	1.66962
61.76	32.8993
61.98	31.9992
62.2	26.4203
62.42	5.32095
62.64	22.3614
62.86	7.4772
63.08	11.9235
63.3	10.3413
63.52	6.05345
63.74	14.0305
63.96	12.3783
64.18	4.54324
64.4	10.5151
64.62	10.8212
64.84	16.0691
65.06	29.7925
65.28	10.927
65.5	6.01028
65.72	6.75422
65.94	13.4665
66.16	3.05133
66.38	18.4329
66.6	23.6327
66.82	7.10862
67.04	9.72147
67.26	8.20891
67.48	4.23618
67.7	18.1972
67.92	15.3993
68.14	28.3229
68.36	19.3297
68.58	14.2442
68.8	16.5883
69.02	23.9857
69.24	10.5194
69.46	1.42604
69.68	20.1036
69.9	22.8536
70.12	1.72866
70.34	16.3588
70.56	3.95201
70.78	4.35826
71	1.71423
71.22	15.013
71.44	10.5784
71.66	7.99633
71.88	1.57161
72.1	1.86639
72.32	4.33665
72.54	12.5176
72.76	0.116119
72.98	17.1466
73.2	10.037
73.42	15.6249
73.64	20.0744
73.86	13.5109
74.08	4.3663
74.3	9.19904
74.52	4.32733
74.74	20.6926
74.96	1.79523
75.18	14.8726
75.4	14.0833
75.62	9.49119
75.84	21.4176
76.06	10.5038
76.28	15.3409
76.5	11.7567
76.72	4.5639
76.94	11.7042
77.16	1.30334
77.38	29.1759
77.6	14.0118
77.82	14.9591
78.04	18.8656
78.26	11.0955
78.48	15.0436
78.7	16.9338
78.92	20.5458
79.14	8.54124
79.36	15.6661
79.58	16.0298
79.8	1.09813
80.02	18.1226
80.24	29.2147
80.46	12.9858
80.68	4.7255
80.9	19.9075
81.12	12.5184
81.34	26.1443
81.56	11.6061
81.78	0.541851
82	11.3321
82.22	1.94154
82.44	19.5654
82.66	12.7482
82.88	10.9593
83.1	22.4282
83.32	0.487637
83.54	10.4445
83.76	12.7358
83.98	5.16901
84.2	1.10973
84.42	2.68945
84.64	16.6293
84.86	1.62718
85.08	18.0291
85.3	3.68426
85.52	6.44284
85.74	18.4774
85.96	15.519
86.18	11.2683
86.4	4.61486
86.62	3.30961
86.84	6.97751
87.06	13.1223
87.28	2.8133
87.5	1.20979
87.72	11.372
87.94	8.58983
88.16	9.89735
88.38	10.6688
88.6	3.3043
88.82	11.6065
89.04	16.9029
89.26	6.62113
89.48	13.9991
89.7	1.47155
89.92	10.8759
