Measurement: Powder, Xray Data XY Processed
Mineral: Parahopeite
Rruff sample: R050463
Ideal chemistry: Zn^2+^_3_(P^5+^O_4_)_2_4H_2_O
Locality: Broken Hill mine, Kabwe, Zambia
Source: University of Arizona Mineral Museum
Description: Colorless elongated subparallel aggregate of crystals
Diffraction sample description: Powder
Measured chemistry: Zn_3.00_(P_1.00_O_4_)_2_Â·4H_2_O
Cell parameters: a: 5.7689(3) b: 7.5452(3) c: 5.2784(4) alpha: 93.446(9) beta: 91.191(7) gamma: 91.387(8) volume: 229.22(2) crystal system: triclinic
x	intensity
5	0
5.22	3.641
5.44	16.003
5.66	10.849
5.88	6.207
6.1	2.171
6.32	5.488
6.54	4.357
6.76	2.533
6.98	16.824
7.2	14.19
7.42	7.749
7.64	8.697
7.86	15.075
8.08	5.87
8.3	3.424
8.52	2.996
8.74	15.589
8.96	8.912
9.18	4.235
9.4	8.384
9.62	9.127
9.84	2.689
10.06	9.187
10.28	13.401
10.5	12.607
10.72	3.89
10.94	0.042
11.16	1.496
11.38	15.973
11.6	22.685
11.82	446.526
12.04	6.742
12.26	12.328
12.48	9.306
12.7	14.977
12.92	16.342
13.14	9.02
13.36	0.391
13.58	5.781
13.8	1.852
14.02	9.182
14.24	3.096
14.46	10.943
14.68	13.547
14.9	14.482
15.12	6.376
15.34	91.131
15.56	5.586
15.78	3.704
16	0.849
16.22	2.381
16.44	8.949
16.66	16.009
16.88	234.971
17.1	15.089
17.32	7.485
17.54	0.261
17.76	13.414
17.98	2.993
18.2	10.494
18.42	1.925
18.64	12.205
18.86	12.006
19.08	24.084
19.3	18.287
19.52	52.47
19.74	53.315
19.96	228.088
20.18	14.766
20.4	18.186
20.62	6.093
20.84	2.971
21.06	20.213
21.28	37.906
21.5	9.668
21.72	19.279
21.94	3.294
22.16	2.505
22.38	2.787
22.6	24.646
22.82	19.726
23.04	34.668
23.26	13.889
23.48	12.184
23.7	137.847
23.92	6.555
24.14	11.167
24.36	6.87
24.58	14.701
24.8	0.703
25.02	19.212
25.24	112.144
25.46	30.427
25.68	1.296
25.9	10.256
26.12	3.299
26.34	1.158
26.56	15.711
26.78	31.499
27	21.114
27.22	4.778
27.44	4.675
27.66	14.185
27.88	10.997
28.1	24.004
28.32	97.043
28.54	4.772
28.76	10.891
28.98	4.958
29.2	9.538
29.42	6.092
29.64	4.981
29.86	39.282
30.08	254.037
30.3	15.225
30.52	14.271
30.74	27.518
30.96	74.153
31.18	43.766
31.4	0.658
31.62	2.085
31.84	8.055
32.06	14.757
32.28	124.914
32.5	44.267
32.72	13.959
32.94	99.757
33.16	32.53
33.38	49.054
33.6	154.638
33.82	27.486
34.04	178.276
34.26	14.645
34.48	3.755
34.7	5.3
34.92	6.092
35.14	25.722
35.36	64.865
35.58	31.707
35.8	148.447
36.02	11.938
36.24	1.214
36.46	0.367
36.68	6.541
36.9	10.288
37.12	33.508
37.34	25.188
37.56	6.228
37.78	24.055
38	7.802
38.22	13.731
38.44	5.752
38.66	19.935
38.88	43.161
39.1	1.509
39.32	10.443
39.54	42.349
39.76	19.039
39.98	13.164
40.2	4.143
40.42	9.585
40.64	4.76
40.86	7.319
41.08	1.301
41.3	12.617
41.52	9.29
41.74	10.948
41.96	12.743
42.18	51.166
42.4	46.43
42.62	47.771
42.84	37.82
43.06	40.724
43.28	24.037
43.5	6.412
43.72	10.454
43.94	6.149
44.16	12.603
44.38	46.676
44.6	18.625
44.82	15.04
45.04	10.334
45.26	14.485
45.48	1.702
45.7	2.115
45.92	11.247
46.14	50.132
46.36	16.073
46.58	19.975
46.8	7.698
47.02	3.95
47.24	35.145
47.46	20.418
47.68	3.941
47.9	0.667
48.12	12.756
48.34	11.114
48.56	19.068
48.78	20.021
49	5.181
49.22	16.898
49.44	0.846
49.66	1.204
49.88	3.534
50.1	13.89
50.32	12.377
50.54	8.736
50.76	17.614
50.98	13.711
51.2	40.756
51.42	12.721
51.64	16.466
51.86	45.399
52.08	36.762
52.3	9.398
52.52	4.378
52.74	23.878
52.96	18.041
53.18	20.279
53.4	6.514
53.62	3.634
53.84	11.699
54.06	4.431
54.28	25.787
54.5	28.161
54.72	21.616
54.94	19.96
55.16	6.681
55.38	6.7
55.6	4.92
55.82	18.148
56.04	10.852
56.26	29.794
56.48	21.434
56.7	4.744
56.92	7.861
57.14	3.278
57.36	2.728
57.58	12.033
57.8	44.391
58.02	17.667
58.24	3.869
58.46	2.832
58.68	41.598
58.9	14.645
59.12	10.446
59.34	31.248
59.56	3.266
59.78	1.477
60	12.788
60.22	6.072
60.44	14.193
60.66	10.016
60.88	19.215
61.1	22.045
61.32	13.892
61.54	16.945
61.76	11.52
61.98	7.852
62.2	13.095
62.42	27.288
62.64	10.401
62.86	3.34
63.08	19.221
63.3	8.552
63.52	10.204
63.74	0.757
63.96	7.179
64.18	13.497
64.4	12.693
64.62	50.111
64.84	36.925
65.06	27.712
65.28	29.551
65.5	8.201
65.72	1.852
65.94	2.32
66.16	4.015
66.38	23.526
66.6	1.307
66.82	6.714
67.04	11.328
67.26	3.953
67.48	7.404
67.7	19.37
67.92	13.697
68.14	10.074
68.36	17.216
68.58	5.8
68.8	6.005
69.02	0.208
69.24	15.276
69.46	30.311
69.68	11.917
69.9	6.281
70.12	18.011
70.34	12.149
70.56	7.212
70.78	0.88
71	7.74
71.22	9.302
71.44	11.52
71.66	3.686
71.88	19.818
72.1	7.176
72.32	16.833
72.54	8.759
72.76	0.217
72.98	6.736
73.2	3.756
73.42	5.934
73.64	6.868
73.86	11.022
74.08	13.768
74.3	3.654
74.52	3.865
74.74	11.039
74.96	0.907
75.18	6.176
75.4	7.238
75.62	5.911
75.84	10.084
76.06	5.179
76.28	4.028
76.5	4.175
76.72	2.566
76.94	6.701
77.16	10.868
77.38	10.205
77.6	7.429
77.82	0.451
78.04	0.391
78.26	1.572
78.48	1.983
78.7	2.388
78.92	2.837
79.14	16.143
79.36	17.7
79.58	13.163
79.8	9.384
80.02	4.714
80.24	4.066
80.46	8.141
80.68	3.177
80.9	6.131
81.12	9.071
81.34	11.921
81.56	7.672
81.78	2.771
82	7.537
82.22	1.466
82.44	5.389
82.66	6.408
82.88	9.727
83.1	8.848
83.32	5.195
83.54	5.645
83.76	2.81
83.98	3.844
84.2	11.151
84.42	1.278
84.64	4.754
84.86	5.648
85.08	9.599
85.3	6.382
85.52	2.322
85.74	0.026
85.96	2.711
86.18	11.523
86.4	8.455
86.62	5.275
86.84	1.217
87.06	4.712
87.28	5.638
87.5	4.622
87.72	8.594
87.94	1.575
88.16	7.743
88.38	4.889
88.6	10.996
88.82	3.185
89.04	6.038
89.26	0.057
89.48	19.892
89.7	4.17
89.92	1.517
