Measurement: Powder, Xray Data XY Processed
Mineral: Paradamite
Rruff sample: R050582
Ideal chemistry: Zn^2+^_2_As^5+^O_4_(OH)
Locality: Ojuela mine, Mapimi, Durango, Mexico
Source: University of Arizona Mineral Museum
Description: Groups of tabular pale yellow crystals
Diffraction sample description: Powder
Measured chemistry: Zn_2.00_(As_1.00_O_4_)(OH)
Cell parameters: a: 5.8259(8) b: 6.7027(3) c: 5.6415(5) alpha: 104.343(9) beta: 92.26(1) gamma: 76.82(2) volume: 207.78(3) crystal system: triclinic
x	intensity
5	0
5.22	11.824
5.44	6.692
5.66	10.356
5.88	3.616
6.1	4.721
6.32	4.283
6.54	6.702
6.76	7.094
6.98	5.118
7.2	15.23
7.42	4.403
7.64	4.303
7.86	2.444
8.08	5.601
8.3	5.877
8.52	3.209
8.74	1.116
8.96	4.165
9.18	9.113
9.4	10.199
9.62	5.205
9.84	3.263
10.06	6.446
10.28	3.592
10.5	1.58
10.72	3.331
10.94	6.291
11.16	3.863
11.38	9.973
11.6	7.794
11.82	1.862
12.04	6.941
12.26	6.914
12.48	8.359
12.7	7.899
12.92	2.652
13.14	0.38
13.36	8.038
13.58	9.812
13.8	15.589
14.02	241.62
14.24	21.274
14.46	7.236
14.68	8.001
14.9	1.018
15.12	0.898
15.34	2.193
15.56	4.357
15.78	8.544
16	8.008
16.22	68.462
16.44	20.521
16.66	6.798
16.88	5.653
17.1	2.904
17.32	1.331
17.54	0.522
17.76	9.634
17.98	5.12
18.2	10.082
18.42	12.885
18.64	9.998
18.86	3.088
19.08	2.551
19.3	0.699
19.52	5.976
19.74	6.785
19.96	12.019
20.18	5.006
20.4	9.608
20.62	9.532
20.84	1.496
21.06	2.33
21.28	1.916
21.5	4.94
21.72	14.271
21.94	0.422
22.16	8.463
22.38	22.605
22.6	8.047
22.82	19.513
23.04	1.114
23.26	0.552
23.48	1.078
23.7	7.088
23.92	75.565
24.14	140.991
24.36	13.308
24.58	1.678
24.8	4.381
25.02	6.876
25.24	8.13
25.46	7.331
25.68	7.463
25.9	2.483
26.12	3.329
26.34	7.171
26.56	9.873
26.78	62.647
27	15.664
27.22	1.047
27.44	0.725
27.66	1.043
27.88	7.413
28.1	10.756
28.32	44.155
28.54	10.066
28.76	8.212
28.98	126.599
29.2	39.952
29.42	10.771
29.64	9.614
29.86	61.068
30.08	132.591
30.3	8.676
30.52	6.837
30.74	14.821
30.96	4.066
31.18	0.304
31.4	14.461
31.62	262.628
31.84	33.901
32.06	13.288
32.28	9.298
32.5	8.316
32.72	11.605
32.94	1.357
33.16	3.9
33.38	0.274
33.6	4.931
33.82	2.454
34.04	7.599
34.26	1.571
34.48	1.921
34.7	7.16
34.92	90.844
35.14	34.905
35.36	9.466
35.58	23.67
35.8	2.551
36.02	131.898
36.24	125.235
36.46	23.104
36.68	65.284
36.9	17.561
37.12	5.781
37.34	31.316
37.56	25.65
37.78	9.973
38	4.252
38.22	3.495
38.44	1.446
38.66	1.547
38.88	3.399
39.1	21.21
39.32	6.716
39.54	7.489
39.76	1.432
39.98	8.386
40.2	2.791
40.42	2.629
40.64	5.461
40.86	9.399
41.08	8.066
41.3	3.956
41.52	17.347
41.74	5.742
41.96	1.242
42.18	6.725
42.4	9.109
42.62	9.6
42.84	41.508
43.06	31.391
43.28	9.518
43.5	15.019
43.72	27.671
43.94	27.347
44.16	5.906
44.38	13.389
44.6	6.698
44.82	3.985
45.04	6.081
45.26	8.732
45.48	1.509
45.7	8.081
45.92	5.289
46.14	1.582
46.36	4.133
46.58	12.633
46.8	7.304
47.02	4.116
47.24	14.054
47.46	3.079
47.68	5.122
47.9	20.672
48.12	13.132
48.34	11.34
48.56	12.088
48.78	5.221
49	1.39
49.22	8.418
49.44	15.367
49.66	0.57
49.88	2.344
50.1	19.455
50.32	16.739
50.54	0.649
50.76	10.261
50.98	20.448
51.2	31.251
51.42	10.765
51.64	8.903
51.86	5.286
52.08	6.012
52.3	18.198
52.52	4.431
52.74	5.594
52.96	5.734
53.18	13.151
53.4	40.39
53.62	15.74
53.84	10.247
54.06	21.966
54.28	9.823
54.5	7.805
54.72	10.36
54.94	23.783
55.16	8.372
55.38	3.821
55.6	0.692
55.82	6.875
56.04	21.651
56.26	10.998
56.48	9.336
56.7	27.671
56.92	24.845
57.14	21.535
57.36	3.352
57.58	2.872
57.8	2.711
58.02	22.208
58.24	30.088
58.46	17.175
58.68	27.254
58.9	28.762
59.12	2.189
59.34	11.158
59.56	13.568
59.78	27.154
60	36.497
60.22	41.099
60.44	21.742
60.66	6.226
60.88	7.436
61.1	1.026
61.32	2.981
61.54	17.932
61.76	15.955
61.98	16.738
62.2	1.727
62.42	0.07
62.64	6.175
62.86	34.641
63.08	7.986
63.3	14.913
63.52	0.096
63.74	9.195
63.96	14.437
64.18	6.663
64.4	3.611
64.62	5.497
64.84	6.178
65.06	16.607
65.28	14.086
65.5	0.412
65.72	13.706
65.94	12.186
66.16	24.087
66.38	23.98
66.6	10.983
66.82	6.31
67.04	11.487
67.26	8.776
67.48	1.667
67.7	7.748
67.92	8.447
68.14	8.224
68.36	4.008
68.58	5.424
68.8	3.913
69.02	0.012
69.24	7.371
69.46	1.384
69.68	9.502
69.9	11.571
70.12	17.481
70.34	19.395
70.56	8.021
70.78	6.336
71	1.122
71.22	11.804
71.44	16.537
71.66	2.283
71.88	4.121
72.1	1.129
72.32	5.884
72.54	3.648
72.76	15.692
72.98	7.551
73.2	8.799
73.42	10.759
73.64	7.332
73.86	0.416
74.08	4.51
74.3	2.753
74.52	4.097
74.74	6.456
74.96	5.653
75.18	17.706
75.4	3.888
75.62	6.081
75.84	1.772
76.06	3.137
76.28	3.307
76.5	10.711
76.72	10.776
76.94	16.778
77.16	9.704
77.38	4.589
77.6	7.952
77.82	8.213
78.04	6.34
78.26	2.783
78.48	19.604
78.7	11.613
78.92	1.329
79.14	11.126
79.36	13.163
79.58	1.474
79.8	5.583
80.02	20.2
80.24	11.931
80.46	0.831
80.68	6.618
80.9	16.609
81.12	9.599
81.34	11.874
81.56	6.244
81.78	17.225
82	10.254
82.22	3.474
82.44	21.044
82.66	5.263
82.88	6.73
83.1	2.199
83.32	1.878
83.54	5.047
83.76	4.907
83.98	2.054
84.2	1.182
84.42	15.078
84.64	9.171
84.86	5.142
85.08	9.249
85.3	3.217
85.52	2.423
85.74	10.461
85.96	3.581
86.18	4.537
86.4	2.351
86.62	7.081
86.84	10.783
87.06	1.437
87.28	7.307
87.5	12.478
87.72	6.184
87.94	3.076
88.16	5.155
88.38	7.082
88.6	0.434
88.82	6.589
89.04	6.968
89.26	10.424
89.48	10.389
89.7	14.669
89.92	10.026
