Measurement: Powder, Xray Data XY Processed
Mineral: Parascholzite
Rruff sample: R060806
Ideal chemistry: CaZn^2+^_2_(P^5+^O_4_)_2_2H_2_O
Locality: Tip Top mine, Fourmile, Custer District, Custer County, South Dakota, USA
Source: Michael Scott
Description: Radial spray of colorless elongated flattened prismatic crystals
Diffraction sample description: Single crystal, powder profile is calculated
Cell parameters: a: 17.86(1) b: 7.410(5) c: 6.669(4) alpha: 90 beta: 106.52(2) gamma: 90 volume: 846(1) crystal system: monoclinic
x	intensity
5	0
5.22	0
5.44	0
5.66	0
5.88	0
6.1	0
6.32	0
6.54	0
6.76	0
6.98	0
7.2	0
7.42	0
7.64	0
7.86	0
8.08	0
8.3	0
8.52	0
8.74	0
8.96	0
9.18	0
9.4	0
9.62	0
9.84	0
10.06	0
10.28	48.767
10.5	0
10.72	0
10.94	0
11.16	0
11.38	0
11.6	0
11.82	0
12.04	0
12.26	0
12.48	0
12.7	0
12.92	0.059
13.14	0.001
13.36	0
13.58	0
13.8	0
14.02	0
14.24	0
14.46	0
14.68	0
14.9	0
15.12	0
15.34	0
15.56	0
15.78	0
16	0
16.22	0
16.44	0
16.66	0
16.88	0
17.1	0
17.32	0
17.54	0
17.76	0
17.98	1.377
18.2	0
18.42	0
18.64	0
18.86	0
19.08	0
19.3	0
19.52	0.453
19.74	0.024
19.96	0.005
20.18	0.03
20.4	0
20.62	0.242
20.84	0.054
21.06	0
21.28	0.332
21.5	0.28
21.72	0
21.94	0
22.16	0
22.38	0
22.6	0
22.82	0
23.04	0
23.26	0
23.48	0
23.7	0
23.92	0.286
24.14	0.034
24.36	0
24.58	0
24.8	0
25.02	0
25.24	0
25.46	0
25.68	0
25.9	0
26.12	4.194
26.34	0.034
26.56	11.288
26.78	0.24
27	0.033
27.22	0
27.44	0
27.66	0
27.88	4.823
28.1	0
28.32	6.355
28.54	0.72
28.76	0.867
28.98	0
29.2	0
29.42	0.011
29.64	0.001
29.86	4.036
30.08	0
30.3	0.013
30.52	0.385
30.74	0
30.96	0
31.18	0.021
31.4	0.002
31.62	0
31.84	8.946
32.06	0.354
32.28	5.585
32.5	9.33
32.72	0
32.94	0
33.16	0
33.38	0
33.6	0
33.82	0
34.04	0
34.26	0
34.48	0
34.7	12.689
34.92	0.001
35.14	1.784
35.36	0
35.58	0
35.8	1.011
36.02	0
36.24	0.437
36.46	0.716
36.68	0.021
36.9	0.001
37.12	3.745
37.34	0.015
37.56	0.297
37.78	1.188
38	0.059
38.22	0
38.44	0
38.66	7.81
38.88	0.365
39.1	1.583
39.32	0.041
39.54	0.11
39.76	9.238
39.98	0.845
40.2	0
40.42	0
40.64	0.029
40.86	1.969
41.08	0
41.3	0
41.52	0.596
41.74	0
41.96	0
42.18	0.386
42.4	0
42.62	0.003
42.84	0
43.06	0.051
43.28	0
43.5	1.844
43.72	0.415
43.94	0.002
44.16	0
44.38	0
44.6	0
44.82	0.134
45.04	0.137
45.26	1.05
45.48	4.89
45.7	0.216
45.92	0.104
46.14	0
46.36	0.216
46.58	0.028
46.8	0.971
47.02	0.002
47.24	0
47.46	0.192
47.68	7.608
47.9	0.257
48.12	0.025
48.34	1.149
48.56	0.021
48.78	0.07
49	0.044
49.22	0.898
49.44	0.658
49.66	0.825
49.88	4.092
50.1	0.024
50.32	6.606
50.54	0.781
50.76	0
50.98	0
51.2	0.011
51.42	0.006
51.64	0.393
51.86	0.233
52.08	0.09
52.3	0
52.52	0.06
52.74	0.045
52.96	0.273
53.18	0.387
53.4	1.703
53.62	0.023
53.84	0.516
54.06	0.073
54.28	0.028
54.5	0.828
54.72	1.927
54.94	2.498
55.16	0
55.38	3.911
55.6	0.027
55.82	0.033
56.04	0.116
56.26	0.016
56.48	0.127
56.7	0.04
56.92	0.677
57.14	0.151
57.36	1.398
57.58	3.131
57.8	0.146
58.02	0.361
58.24	2.178
58.46	0.738
58.68	0.949
58.9	0.581
59.12	0.444
59.34	0.708
59.56	1.249
59.78	0.025
60	0.001
60.22	0.047
60.44	0
60.66	2.024
60.88	0.876
61.1	0.704
61.32	1.489
61.54	1.127
61.76	0.231
61.98	1.29
62.2	0.299
62.42	0.242
62.64	0
62.86	0.13
63.08	0.065
63.3	1.671
63.52	0.243
63.74	0.137
63.96	0.022
64.18	0
64.4	0.041
64.62	0.09
64.84	1.244
65.06	0.395
65.28	0.393
65.5	0.128
65.72	0.158
65.94	2.088
66.16	1.458
66.38	0.003
66.6	0.033
66.82	0.219
67.04	0.078
67.26	0.895
67.48	1.338
67.7	0.012
67.92	0.458
68.14	0.106
68.36	0
68.58	0
68.8	0.202
69.02	0.437
69.24	0.234
69.46	0.029
69.68	0.027
69.9	0.827
70.12	0.324
70.34	0.193
70.56	0.142
70.78	0.135
71	0.107
71.22	0
71.44	0.145
71.66	0.95
71.88	0.651
72.1	0.001
72.32	0.647
72.54	0.687
72.76	0.355
72.98	1.206
73.2	1.499
73.42	0.524
73.64	0.312
73.86	0.192
74.08	0.026
74.3	0.375
74.52	0.225
74.74	0.22
74.96	0.103
75.18	0.302
75.4	0.172
75.62	0.072
75.84	0.116
76.06	1.302
76.28	0.645
76.5	0.113
76.72	0.131
76.94	0.062
77.16	1.418
77.38	0.797
77.6	0.004
77.82	0.014
78.04	0.198
78.26	0.069
78.48	0.131
78.7	0.061
78.92	0.295
79.14	0.217
79.36	0.146
79.58	0.015
79.8	0.04
80.02	0.045
80.24	0.013
80.46	0.208
80.68	0.082
80.9	0.188
81.12	0.073
81.34	0.001
81.56	0.387
81.78	0.397
82	0.032
82.22	0.462
82.44	0.624
82.66	0.414
82.88	0.932
83.1	0.727
83.32	0.262
83.54	0.118
83.76	0.067
83.98	0.037
84.2	0.091
84.42	0.034
84.64	0.03
84.86	0.351
85.08	0.416
85.3	0.136
85.52	0.071
85.74	0.01
85.96	0.542
86.18	0.698
86.4	0.154
86.62	0.002
86.84	0.005
87.06	0.001
87.28	0.037
87.5	0.006
87.72	0
87.94	0.309
88.16	0.095
88.38	0.237
88.6	0.516
88.82	0.005
89.04	0.062
89.26	0.026
89.48	0.067
89.7	0.016
89.92	0.094
