Measurement: Powder, Xray Data XY Processed
Mineral: Pargasite
Rruff sample: R060072
Ideal chemistry: NaCa_2_(Mg_4_Al)(Si_6_Al_2_)O_22_(OH)_2_
Locality: Pein Pyit, Mogok, Burma
Source: Marcus Origlieri
Description: Pale green prismatic crystal embedded in calcite
Diffraction sample description: Powder
Measured chemistry: (Na_0.81_K_0.19_)_Σ=1_(Ca_1.90_Na_0.10_)_Σ=2_(Mg_3.46_Al_0.45_Fe^2+^_0.05_Ti_0.04_)_Σ=4_Al_1.00_(Si_5.57_Al_2.43_)_Σ=8_O_22_(OH)_2_
Cell parameters: a: 9.8384(5) b: 17.8642(9) c: 5.3105(3) alpha: 90 beta: 105.339(3) gamma: 90 volume: 900.10(6) crystal system: monoclinic
x	intensity
5	0
5.22	17.936
5.44	8.139
5.66	6.568
5.88	5.324
6.1	9.51
6.32	8.903
6.54	2.762
6.76	6.842
6.98	11.321
7.2	2.967
7.42	9.573
7.64	8.118
7.86	7.48
8.08	6.05
8.3	0.397
8.52	0.647
8.74	3.505
8.96	12.673
9.18	12.88
9.4	7.738
9.62	6.419
9.84	12.417
10.06	1.544
10.28	6.776
10.5	38.546
10.72	11.845
10.94	11.296
11.16	8.576
11.38	1.757
11.6	2.264
11.82	10.761
12.04	1.967
12.26	14.092
12.48	4.308
12.7	14.248
12.92	12.412
13.14	8.403
13.36	0.523
13.58	4.802
13.8	0.844
14.02	2.76
14.24	6.805
14.46	13.055
14.68	11.057
14.9	2.203
15.12	5.534
15.34	2.721
15.56	5.14
15.78	3.18
16	7.283
16.22	7.379
16.44	8.418
16.66	8.368
16.88	5.413
17.1	3.415
17.32	0.367
17.54	7.464
17.76	8.453
17.98	5.353
18.2	12.428
18.42	4.322
18.64	1.576
18.86	4.639
19.08	0.561
19.3	5.622
19.52	3.856
19.74	0.085
19.96	58.16
20.18	14.213
20.4	4.106
20.62	0.635
20.84	8.371
21.06	6.396
21.28	11.519
21.5	9.737
21.72	6.781
21.94	3.859
22.16	1.507
22.38	14.567
22.6	2.69
22.82	7.607
23.04	14.574
23.26	6.717
23.48	1.49
23.7	3.595
23.92	5.499
24.14	7.651
24.36	4.635
24.58	5.773
24.8	6.601
25.02	7.545
25.24	0.236
25.46	3.857
25.68	7.434
25.9	13.121
26.12	3.226
26.34	5.419
26.56	127.236
26.78	16.934
27	1.996
27.22	4.235
27.44	105.999
27.66	12.042
27.88	12.101
28.1	1.362
28.32	1.403
28.54	12.59
28.76	177.816
28.98	10.757
29.2	1.316
29.42	7.286
29.64	12.132
29.86	2.392
30.08	7.711
30.3	1.812
30.52	63.654
30.74	15.06
30.96	8.117
31.18	4.962
31.4	0.879
31.62	11.957
31.84	1.893
32.06	72.793
32.28	1.401
32.5	4.06
32.72	46.346
32.94	7.361
33.16	12.085
33.38	201.085
33.6	5.921
33.82	6.674
34.04	3.711
34.26	0.256
34.48	9.924
34.7	12.056
34.92	148.401
35.14	69.19
35.36	5.207
35.58	4.56
35.8	0.086
36.02	0.762
36.24	5.437
36.46	2.535
36.68	3.726
36.9	0.251
37.12	2.604
37.34	5.676
37.56	3.4
37.78	4.911
38	38.68
38.22	10.105
38.44	0.877
38.66	68.952
38.88	25.062
39.1	3.79
39.32	39.279
39.54	23.31
39.76	5.204
39.98	2.74
40.2	12.897
40.42	3.705
40.64	7.498
40.86	4.665
41.08	1.579
41.3	0.55
41.52	2.264
41.74	9.426
41.96	18.832
42.18	33.883
42.4	23.786
42.62	5.128
42.84	6.055
43.06	14.2
43.28	6.108
43.5	6.989
43.72	2.163
43.94	3.699
44.16	7.391
44.38	15.913
44.6	15.722
44.82	20.366
45.04	8.007
45.26	52.056
45.48	3.163
45.7	15.237
45.92	10.393
46.14	1.748
46.36	2.912
46.58	4.474
46.8	40.596
47.02	2.652
47.24	3.587
47.46	3.356
47.68	1.075
47.9	1.545
48.12	11.36
48.34	44.018
48.56	6.739
48.78	6.916
49	9.683
49.22	13.71
49.44	9.8
49.66	7.952
49.88	1.548
50.1	2.646
50.32	3.923
50.54	17.379
50.76	6.687
50.98	1.924
51.2	12.95
51.42	5.083
51.64	7.592
51.86	9.965
52.08	8.614
52.3	13.621
52.52	3.751
52.74	5.737
52.96	0.67
53.18	8.587
53.4	8.424
53.62	1.217
53.84	0.928
54.06	10.503
54.28	7.311
54.5	1.938
54.72	25.006
54.94	1.848
55.16	5.615
55.38	2.551
55.6	3.522
55.82	2.48
56.04	24.741
56.26	78.113
56.48	4.03
56.7	15.923
56.92	6.624
57.14	1.457
57.36	1.333
57.58	19.735
57.8	16.348
58.02	3.92
58.24	9.251
58.46	18.08
58.68	4.747
58.9	2.749
59.12	7.632
59.34	2.572
59.56	8.69
59.78	9.384
60	9.934
60.22	15.221
60.44	4.491
60.66	5.968
60.88	1.027
61.1	25.894
61.32	9.828
61.54	10.861
61.76	5.243
61.98	4.577
62.2	17.896
62.42	22.102
62.64	6.314
62.86	3.596
63.08	0.58
63.3	5.768
63.52	2.783
63.74	10.787
63.96	12.834
64.18	0.295
64.4	5.874
64.62	2.945
64.84	17.036
65.06	41.821
65.28	6.064
65.5	2.117
65.72	5.439
65.94	3.705
66.16	0.032
66.38	9.127
66.6	1.327
66.82	0.468
67.04	6.636
67.26	12.901
67.48	12.259
67.7	3.031
67.92	1.862
68.14	1.705
68.36	3.611
68.58	10.48
68.8	8.802
69.02	4.681
69.24	11.373
69.46	13.697
69.68	6.322
69.9	2.144
70.12	2.959
70.34	2.775
70.56	0.718
70.78	18.539
71	24.422
71.22	11.843
71.44	5.782
71.66	4.81
71.88	7.94
72.1	3.19
72.32	16.451
72.54	13.586
72.76	3.74
72.98	0.01
73.2	4.086
73.42	3.177
73.64	40.259
73.86	22.357
74.08	1.128
74.3	5.895
74.52	11.036
74.74	4.201
74.96	3.532
75.18	8.919
75.4	1.983
75.62	1.366
75.84	0.164
76.06	6.188
76.28	1.387
76.5	6.538
76.72	3.677
76.94	3.62
77.16	4.679
77.38	12.498
77.6	4.258
77.82	6.392
78.04	0.65
78.26	7.997
78.48	8.713
78.7	5.84
78.92	3.723
79.14	2.467
79.36	7.235
79.58	5.086
79.8	9.231
80.02	4.189
80.24	9.901
80.46	8.988
80.68	12.09
80.9	9.412
81.12	11.296
81.34	1.386
81.56	0.559
81.78	5.652
82	0.259
82.22	5.69
82.44	3.76
82.66	5.949
82.88	11.986
83.1	5.045
83.32	4.086
83.54	7.078
83.76	3.167
83.98	3.202
84.2	3.289
84.42	3.543
84.64	4.568
84.86	18.102
85.08	9.05
85.3	3.761
85.52	1.688
85.74	1.511
85.96	6.433
86.18	1.274
86.4	2.168
86.62	5.05
86.84	8.795
87.06	16.706
87.28	5.194
87.5	2.157
87.72	9.188
87.94	3.569
88.16	0.698
88.38	0.042
88.6	3.193
88.82	2.204
89.04	6.457
89.26	3.802
89.48	4.9
89.7	6.589
89.92	3.708
