Measurement: Powder, Xray Data XY Processed
Mineral: Pectolite
Rruff sample: R060101
Ideal chemistry: NaCa_2_Si_3_O_8_(OH)
Locality: West Patterson, New Jersey, USA
Source: University of Arizona Mineral Museum
Description: Tufts of white acicular sprays
Diffraction sample description: Powder
Measured chemistry: Na_1.02_Ca_2.00_Si_2.99_O_8_(OH)
Cell parameters: a: 7.9891(7) b: 7.050(4) c: 7.0270(7) alpha: 90.43(2) beta: 95.19(1) gamma: 102.44(2) volume: 384.7(2) crystal system: triclinic
x	intensity
5	0
5.22	17.623
5.44	4.528
5.66	6.19
5.88	13.124
6.1	14.443
6.32	14.73
6.54	9.75
6.76	16.412
6.98	0.798
7.2	7.209
7.42	4.707
7.64	7.147
7.86	2.352
8.08	2.049
8.3	5.364
8.52	8.99
8.74	7.394
8.96	7.672
9.18	1.626
9.4	0.221
9.62	7.914
9.84	0.1
10.06	4.164
10.28	3.145
10.5	2.173
10.72	3.073
10.94	8.874
11.16	4.071
11.38	4.892
11.6	0.911
11.82	8.23
12.04	8.598
12.26	1.641
12.48	3.915
12.7	36.115
12.92	4.41
13.14	5.591
13.36	4.672
13.58	1.853
13.8	6.983
14.02	8.086
14.24	0.948
14.46	7.006
14.68	0.056
14.9	2.032
15.12	4.01
15.34	11.878
15.56	3.87
15.78	4.769
16	2.773
16.22	16.732
16.44	2.715
16.66	13.849
16.88	5.583
17.1	1.48
17.32	1.606
17.54	2.709
17.76	5.817
17.98	6.018
18.2	6.026
18.42	5.994
18.64	8.171
18.86	4.341
19.08	3.348
19.3	0.532
19.52	7.566
19.74	5.625
19.96	6.759
20.18	3.684
20.4	1.277
20.62	6.781
20.84	1.735
21.06	0.633
21.28	3.475
21.5	5.485
21.72	0.736
21.94	2.169
22.16	7.005
22.38	4.126
22.6	6.029
22.82	9.988
23.04	40.91
23.26	2.932
23.48	3.973
23.7	1.315
23.92	4.33
24.14	1.412
24.36	6.392
24.58	3.285
24.8	2.863
25.02	6.627
25.24	0.725
25.46	15.055
25.68	5.911
25.9	6.506
26.12	5.79
26.34	4.273
26.56	0.86
26.78	0.235
27	269.987
27.22	21.676
27.44	70.478
27.66	3.331
27.88	0.05
28.1	4.797
28.32	22.677
28.54	18.709
28.76	4.809
28.98	88.013
29.2	34.702
29.42	5.792
29.64	4.001
29.86	0.252
30.08	1.542
30.3	4.826
30.52	8.413
30.74	42.926
30.96	38.545
31.18	11.961
31.4	4.077
31.62	2.308
31.84	3.595
32.06	4.808
32.28	3.956
32.5	5.127
32.72	10.286
32.94	64.251
33.16	9.254
33.38	1.829
33.6	5.729
33.82	0.479
34.04	2.669
34.26	9.659
34.48	0.275
34.7	125.937
34.92	8.954
35.14	4.865
35.36	2.746
35.58	1.786
35.8	0.806
36.02	6.828
36.24	3.843
36.46	0.782
36.68	8.188
36.9	5.172
37.12	6.166
37.34	12.19
37.56	5.161
37.78	2.084
38	6.785
38.22	3.638
38.44	2.479
38.66	45.36
38.88	7.065
39.1	11.924
39.32	154.782
39.54	11.653
39.76	6.403
39.98	6.469
40.2	3.513
40.42	0.584
40.64	6.668
40.86	6.787
41.08	1.958
41.3	7.317
41.52	23.431
41.74	15.424
41.96	9.622
42.18	7.848
42.4	8.965
42.62	3.229
42.84	3.44
43.06	0.541
43.28	1.884
43.5	7.958
43.72	4.678
43.94	1.514
44.16	6.453
44.38	2.357
44.6	3.205
44.82	3.065
45.04	3.156
45.26	6.1
45.48	10.995
45.7	16.632
45.92	5.418
46.14	1.505
46.36	1.422
46.58	8.379
46.8	10.387
47.02	8.831
47.24	2.838
47.46	13.482
47.68	0.415
47.9	0.454
48.12	3.505
48.34	7.655
48.56	15.62
48.78	8.741
49	3.806
49.22	6.878
49.44	3.201
49.66	11.643
49.88	1.77
50.1	11.806
50.32	4.783
50.54	4.65
50.76	1.494
50.98	3.274
51.2	2.009
51.42	10.72
51.64	11.331
51.86	3.522
52.08	6.358
52.3	19.052
52.52	43.86
52.74	8.725
52.96	2.649
53.18	7.706
53.4	8.871
53.62	8.095
53.84	19.327
54.06	6.449
54.28	3.492
54.5	2.36
54.72	4.599
54.94	9.831
55.16	11.261
55.38	3.781
55.6	37.093
55.82	6.337
56.04	9.606
56.26	9.701
56.48	6.892
56.7	2.991
56.92	0.007
57.14	4.183
57.36	5.116
57.58	13.081
57.8	5.735
58.02	10.208
58.24	2.026
58.46	0.667
58.68	1.386
58.9	1.097
59.12	10.999
59.34	7.845
59.56	11.518
59.78	9.384
60	11.19
60.22	12.403
60.44	2.776
60.66	1.91
60.88	0.317
61.1	3.801
61.32	1.011
61.54	5.003
61.76	2.115
61.98	3.309
62.2	2.254
62.42	19.173
62.64	20.965
62.86	4.65
63.08	5.596
63.3	17.308
63.52	31.27
63.74	7.579
63.96	5.655
64.18	6.829
64.4	5.833
64.62	7.136
64.84	1.497
65.06	7.682
65.28	4.91
65.5	1.938
65.72	4.992
65.94	2.192
66.16	0.559
66.38	3.464
66.6	3.441
66.82	8.494
67.04	4.403
67.26	4.102
67.48	10.947
67.7	9.699
67.92	2.737
68.14	4.825
68.36	9.764
68.58	13.696
68.8	11.82
69.02	4.875
69.24	5.64
69.46	6.75
69.68	13.993
69.9	5.14
70.12	0.458
70.34	7.431
70.56	0.584
70.78	3.881
71	2.966
71.22	3.923
71.44	3.856
71.66	1.992
71.88	2.948
72.1	5.764
72.32	3.648
72.54	3.602
72.76	1.595
72.98	4.318
73.2	7.137
73.42	3.198
73.64	2.286
73.86	9.407
74.08	8.343
74.3	5.46
74.52	2.566
74.74	1.799
74.96	4.829
75.18	0.992
75.4	4.128
75.62	1.179
75.84	4.228
76.06	1.177
76.28	2.174
76.5	5.243
76.72	9.352
76.94	4.297
77.16	2.287
77.38	5.229
77.6	2.227
77.82	0.163
78.04	0.266
78.26	1.19
78.48	3.119
78.7	5.11
78.92	5.053
79.14	4.011
79.36	5.016
79.58	3.006
79.8	3.011
80.02	3.993
80.24	4.936
80.46	2.778
80.68	2.688
80.9	12.699
81.12	0.361
81.34	1.525
81.56	3.299
81.78	6.14
82	1
82.22	0.998
82.44	8.852
82.66	7.276
82.88	11.225
83.1	3.284
83.32	0.136
83.54	2.204
83.76	2.781
83.98	2.31
84.2	1.35
84.42	7.298
84.64	3.257
84.86	3.05
85.08	7.054
85.3	4.173
85.52	3.31
85.74	7.365
85.96	5.488
86.18	1.625
86.4	5.63
86.62	3.559
86.84	2.5
87.06	0.58
87.28	2.391
87.5	2.169
87.72	6.91
87.94	2.651
88.16	6.482
88.38	1.407
88.6	4.261
88.82	11.01
89.04	16.01
89.26	6.84
89.48	5.879
89.7	4.262
89.92	4.091
