Measurement: Powder, Xray Data XY Processed
Mineral: Penfieldite
Rruff sample: R050163
Ideal chemistry: Pb^2+^_2_Cl_3_(OH)
Locality: Margarita mine, Sierra Gorda, Antofagasta, Chile
Source: Jim McGlasson
Description: Colorless pyramidal crystals, associated with blue pseudobol√©ite, R050162
Diffraction sample description: Single crystal, powder profile is calculated
Cell parameters: a: 11.3870(5) b: 11.3870(5) c: 4.0609(2) alpha: 90 beta: 90 gamma: 120 volume: 456.01(5) crystal system: hexagonal
x	intensity
5	0
5.22	0
5.44	0
5.66	0
5.88	0.017
6.1	0
6.32	0
6.54	0
6.76	0
6.98	0
7.2	0
7.42	0
7.64	0
7.86	0
8.08	0
8.3	0
8.52	0
8.74	0
8.96	0
9.18	0
9.4	0
9.62	0
9.84	0
10.06	0
10.28	0
10.5	0
10.72	0
10.94	0
11.16	0
11.38	0
11.6	9.581
11.82	0
12.04	0
12.26	0
12.48	0
12.7	0
12.92	0
13.14	0
13.36	0
13.58	0
13.8	0
14.02	9.632
14.24	0.255
14.46	0
14.68	0.058
14.9	0.002
15.12	0
15.34	4.366
15.56	3.841
15.78	0
16	0
16.22	0
16.44	0
16.66	0
16.88	0
17.1	0
17.32	0.267
17.54	41.096
17.76	0
17.98	4.834
18.2	0
18.42	0.064
18.64	8.375
18.86	5.013
19.08	0.001
19.3	0.066
19.52	0
19.74	0
19.96	0
20.18	0
20.4	0
20.62	0
20.84	0
21.06	9.459
21.28	0
21.5	0.502
21.72	0.068
21.94	71.111
22.16	0
22.38	22.168
22.6	0
22.82	0.197
23.04	0.614
23.26	2.286
23.48	0
23.7	0
23.92	0
24.14	0.042
24.36	0.867
24.58	3.055
24.8	0
25.02	0
25.24	0
25.46	0.554
25.68	0.122
25.9	0.002
26.12	0
26.34	3.611
26.56	0
26.78	0
27	0
27.22	2.581
27.44	0.593
27.66	0.046
27.88	0
28.1	3.418
28.32	0.787
28.54	0.363
28.76	1.643
28.98	2.008
29.2	2.85
29.42	5.495
29.64	2.217
29.86	1.484
30.08	0.272
30.3	11.313
30.52	0
30.74	1.516
30.96	0.765
31.18	1.593
31.4	1.853
31.62	2.547
31.84	0
32.06	2.885
32.28	0.218
32.5	1.68
32.72	0.01
32.94	0.547
33.16	3.842
33.38	0.006
33.6	6.889
33.82	0.022
34.04	0.281
34.26	6.913
34.48	0.364
34.7	0.078
34.92	0.891
35.14	3.446
35.36	2.158
35.58	2.233
35.8	0.021
36.02	0.021
36.24	0
36.46	0.581
36.68	0.57
36.9	0.052
37.12	0.866
37.34	1.369
37.56	4.389
37.78	0.239
38	6.297
38.22	1.359
38.44	0.037
38.66	0
38.88	0.432
39.1	0.276
39.32	0
39.54	0.203
39.76	0.473
39.98	0.03
40.2	0
40.42	0.077
40.64	1.884
40.86	1.065
41.08	0.015
41.3	1.139
41.52	0.177
41.74	0.05
41.96	0
42.18	0
42.4	0
42.62	1.152
42.84	1.289
43.06	1.164
43.28	0.347
43.5	0.535
43.72	0.889
43.94	0.334
44.16	0.193
44.38	0.012
44.6	0.498
44.82	2.409
45.04	1.001
45.26	1.077
45.48	2.343
45.7	0.94
45.92	1.099
46.14	1.324
46.36	0.574
46.58	0.01
46.8	0.227
47.02	0.07
47.24	1.488
47.46	1.302
47.68	3.976
47.9	6.838
48.12	1.987
48.34	0.109
48.56	1.176
48.78	0.932
49	1.224
49.22	1.448
49.44	0.492
49.66	3.773
49.88	0.88
50.1	2.303
50.32	2.996
50.54	1.736
50.76	2.309
50.98	0.226
51.2	0.026
51.42	0.244
51.64	1.252
51.86	0.802
52.08	1.045
52.3	0.741
52.52	1.636
52.74	0.969
52.96	1.638
53.18	0.161
53.4	0.763
53.62	0.033
53.84	0.162
54.06	0.079
54.28	0.306
54.5	0.983
54.72	0.094
54.94	0.417
55.16	0.031
55.38	0.808
55.6	0.62
55.82	0.243
56.04	0.554
56.26	0.192
56.48	0.403
56.7	0.55
56.92	0.66
57.14	0.236
57.36	1.235
57.58	0.157
57.8	0.668
58.02	0.351
58.24	0.728
58.46	2.006
58.68	0.305
58.9	1.228
59.12	0.252
59.34	0.743
59.56	0.326
59.78	1.391
60	1.067
60.22	0.704
60.44	0.433
60.66	1.353
60.88	0.747
61.1	0.5
61.32	0.45
61.54	0.964
61.76	1.253
61.98	0.361
62.2	0.878
62.42	0.641
62.64	1.277
62.86	0.683
63.08	0.17
63.3	0.209
63.52	0.051
63.74	0.254
63.96	0.305
64.18	0.213
64.4	0.675
64.62	0.873
64.84	0.544
65.06	0.371
65.28	0.589
65.5	0.17
65.72	0.114
65.94	0.694
66.16	0.525
66.38	0.136
66.6	0.183
66.82	0.124
67.04	0.574
67.26	0.616
67.48	0.294
67.7	0.272
67.92	0.405
68.14	0.128
68.36	0.255
68.58	0.28
68.8	2.003
69.02	1.122
69.24	0.114
69.46	0.959
69.68	0.662
69.9	0.2
70.12	0.393
70.34	0.478
70.56	0.137
70.78	0.418
71	0.246
71.22	0.036
71.44	0.037
71.66	0.375
71.88	0.463
72.1	0.288
72.32	0.07
72.54	0.003
72.76	0.221
72.98	0.155
73.2	0.119
73.42	0.209
73.64	0.113
73.86	0.32
74.08	0.153
74.3	0.503
74.52	0.375
74.74	0.207
74.96	0.111
75.18	0.173
75.4	0.175
75.62	0.28
75.84	0.194
76.06	0.157
76.28	0.416
76.5	0.283
76.72	0.364
76.94	0.261
77.16	0.223
77.38	0.272
77.6	0.212
77.82	0.421
78.04	0.294
78.26	0.51
78.48	0.299
78.7	0.102
78.92	0.376
79.14	0.351
79.36	0.196
79.58	0.249
79.8	0.764
80.02	0.547
80.24	0.598
80.46	0.336
80.68	0.043
80.9	0.099
81.12	0.216
81.34	0.252
81.56	0.538
81.78	0.363
82	0.542
82.22	0.702
82.44	0.3
82.66	0.273
82.88	0.214
83.1	0.024
83.32	0.091
83.54	0.045
83.76	0.089
83.98	0.173
84.2	0.366
84.42	0.098
84.64	0.015
84.86	0.174
85.08	0.174
85.3	0.237
85.52	0.142
85.74	0.108
85.96	0.092
86.18	0.169
86.4	0.067
86.62	0.031
86.84	0.186
87.06	0.18
87.28	0.107
87.5	0.044
87.72	0.055
87.94	0.16
88.16	0.304
88.38	0.163
88.6	0.12
88.82	0.15
89.04	0.131
89.26	0.07
89.48	0.113
89.7	0.24
89.92	0.128
