Measurement: Powder, Xray Data XY Processed
Mineral: Pentahydrite
Rruff sample: R060990
Ideal chemistry: MgS^6+^O_4_5H_2_O
Locality: Strassfurt, Prussia
Source: Michael Scott
Description: Unconsolidated aggregate of colorless grains, mixed with starkeyite
Diffraction sample description: Powder, mixed with starkeyite
Cell parameters: a: 6.3312(4) b: 10.5311(9) c: 6.0624(7) alpha: 80.952(7) beta: 109.957(6) gamma: 105.025(6) volume: 365.89(4) crystal system: triclinic
x	intensity
5	0
5.22	11.6384
5.44	15.9789
5.66	7.9797
5.88	4.75277
6.1	0.315205
6.32	11.0731
6.54	14.302
6.76	10.9449
6.98	14.8151
7.2	12.8173
7.42	4.38493
7.64	3.52717
7.86	12.7081
8.08	7.04989
8.3	13.0819
8.52	6.86161
8.74	40.3427
8.96	5.58303
9.18	10.2486
9.4	16.7566
9.62	5.05465
9.84	5.36056
10.06	4.24773
10.28	7.63721
10.5	3.0632
10.72	9.30796
10.94	1.42049
11.16	20.2782
11.38	15.0034
11.6	8.74336
11.82	8.25801
12.04	14.9802
12.26	8.60922
12.48	5.52605
12.7	26.561
12.92	51.4432
13.14	6.7267
13.36	11.022
13.58	6.80092
13.8	6.45696
14.02	13.6299
14.24	8.82796
14.46	14.3645
14.68	3.99743
14.9	15.5575
15.12	18.9801
15.34	36.1439
15.56	17.0678
15.78	45.3131
16	15.1641
16.22	32.8509
16.44	38.1429
16.66	23.9957
16.88	15.5801
17.1	14.3581
17.32	86.5465
17.54	12.5149
17.76	17.417
17.98	179.575
18.2	10.615
18.42	16.6179
18.64	10.17
18.86	46.1197
19.08	11.8649
19.3	15.8285
19.52	0.125309
19.74	10.1912
19.96	130.52
20.18	18.3214
20.4	10.3422
20.62	11.7128
20.84	15.015
21.06	10.6419
21.28	9.44995
21.5	13.0774
21.72	1.85788
21.94	28.3974
22.16	5.97326
22.38	19.886
22.6	91.7791
22.82	4.39706
23.04	1.24409
23.26	9.04725
23.48	11.7891
23.7	11.0908
23.92	3.07849
24.14	11.3354
24.36	15.5181
24.58	15.6465
24.8	19.7554
25.02	4.3256
25.24	12.7185
25.46	17.4563
25.68	0.011341
25.9	16.6804
26.12	22.9355
26.34	23.4428
26.56	5.03481
26.78	18.7204
27	2.52526
27.22	17.1914
27.44	47.3645
27.66	36.3797
27.88	4.51825
28.1	18.832
28.32	52.2861
28.54	15.9623
28.76	12.2655
28.98	5.61473
29.2	8.06048
29.42	18.5536
29.64	3.66331
29.86	31.172
30.08	41.5294
30.3	230.112
30.52	30.271
30.74	20.1883
30.96	15.8324
31.18	2.82481
31.4	1.11527
31.62	21.895
31.84	5.00964
32.06	47.2876
32.28	7.3327
32.5	17.1104
32.72	17.1398
32.94	6.90091
33.16	18.9878
33.38	22.0872
33.6	24.3875
33.82	15.6449
34.04	29.8904
34.26	11.9984
34.48	1.92664
34.7	3.89127
34.92	13.1539
35.14	29.707
35.36	36.7627
35.58	14.8333
35.8	10.6646
36.02	23.4317
36.24	15.5043
36.46	20.3633
36.68	9.3933
36.9	16.16
37.12	12.8874
37.34	6.95685
37.56	12.2761
37.78	18.3906
38	14.2661
38.22	21.52
38.44	0.181469
38.66	1.87946
38.88	5.30595
39.1	1.1235
39.32	4.28815
39.54	38.0169
39.76	39.4077
39.98	12.6818
40.2	3.88789
40.42	12.813
40.64	6.70869
40.86	15.1333
41.08	17.4117
41.3	11.3195
41.52	14.4728
41.74	6.45112
41.96	5.82189
42.18	9.89287
42.4	10.6591
42.62	16.1258
42.84	5.11562
43.06	11.5252
43.28	8.7257
43.5	5.87414
43.72	8.29162
43.94	7.18432
44.16	8.65289
44.38	18.7141
44.6	9.94096
44.82	2.92147
45.04	7.15769
45.26	2.30902
45.48	18.8922
45.7	15.676
45.92	10.0983
46.14	11.555
46.36	25.8884
46.58	7.1894
46.8	14.7887
47.02	9.08129
47.24	7.49658
47.46	12.88
47.68	18.2603
47.9	6.71515
48.12	11.9344
48.34	8.60032
48.56	7.08104
48.78	14.1799
49	7.52731
49.22	1.29273
49.44	2.20841
49.66	3.38594
49.88	9.5138
50.1	9.91099
50.32	8.09164
50.54	6.54028
50.76	12.3963
50.98	10.2696
51.2	9.48683
51.42	3.42286
51.64	15.0808
51.86	9.03554
52.08	4.29777
52.3	8.71908
52.52	0.290356
52.74	10.9631
52.96	2.58089
53.18	18.2848
53.4	17.6916
53.62	4.88456
53.84	7.3512
54.06	9.32677
54.28	2.79899
54.5	6.8672
54.72	7.9452
54.94	7.8746
55.16	11.7953
55.38	19.3636
55.6	14.6665
55.82	8.81034
56.04	12.6535
56.26	7.15648
56.48	8.91904
56.7	2.5928
56.92	7.87939
57.14	20.9604
57.36	8.0243
57.58	4.11092
57.8	11.4703
58.02	8.49908
58.24	11.4317
58.46	8.5945
58.68	13.0525
58.9	2.4515
59.12	7.23247
59.34	3.64577
59.56	8.91452
59.78	0.732201
60	5.39215
60.22	2.25832
60.44	1.3047
60.66	1.32521
60.88	11.8083
61.1	20.5624
61.32	12.3869
61.54	1.40028
61.76	10.2079
61.98	13.4363
62.2	2.3586
62.42	5.86977
62.64	9.96401
62.86	0.923601
63.08	13.2334
63.3	11.8699
63.52	10.9686
63.74	11.1899
63.96	6.36221
64.18	6.39739
64.4	7.48346
64.62	7.58407
64.84	3.73332
65.06	9.92795
65.28	7.07333
65.5	12.1533
65.72	4.20994
65.94	2.68568
66.16	14.1125
66.38	9.11213
66.6	10.2686
66.82	5.29436
67.04	10.3196
67.26	14.0308
67.48	8.0147
67.7	3.2288
67.92	13.5608
68.14	0.324677
68.36	8.7848
68.58	15.9177
68.8	11.0352
69.02	7.30024
69.24	7.37454
69.46	7.35102
69.68	4.39786
69.9	0.470294
70.12	6.52922
70.34	18.6505
70.56	4.64227
70.78	12.9341
71	2.88828
71.22	6.58477
71.44	12.441
71.66	7.23424
71.88	5.10856
72.1	5.95215
72.32	4.97043
72.54	4.51125
72.76	12.1616
72.98	1.0271
73.2	11.8129
73.42	4.02736
73.64	9.15616
73.86	7.26636
74.08	7.37591
74.3	5.41957
74.52	8.54115
74.74	1.58074
74.96	11.7054
75.18	4.81569
75.4	2.93207
75.62	8.24997
75.84	0.641732
76.06	9.45351
76.28	4.565
76.5	11.6465
76.72	14.9445
76.94	4.18839
77.16	13.4486
77.38	4.534
77.6	9.77388
77.82	6.84465
78.04	10.8381
78.26	14.6944
78.48	9.80152
78.7	21.4818
78.92	7.39793
79.14	13.2399
79.36	4.79885
79.58	2.63887
79.8	2.53206
80.02	11.4114
80.24	3.52239
80.46	3.07386
80.68	6.79526
80.9	4.94144
81.12	4.95894
81.34	5.26426
81.56	16.2707
81.78	7.47188
82	9.71545
82.22	2.71079
82.44	12.8493
82.66	5.83544
82.88	3.87139
83.1	4.00227
83.32	3.87547
83.54	11.155
83.76	6.8423
83.98	8.9789
84.2	3.1498
84.42	1.00316
84.64	7.00751
84.86	10.994
85.08	10.0011
85.3	1.995
85.52	9.02943
85.74	12.0761
85.96	1.04466
86.18	10.0587
86.4	5.08472
86.62	9.8251
86.84	7.01297
87.06	4.15178
87.28	5.27025
87.5	4.31894
87.72	3.44504
87.94	3.42297
88.16	5.42005
88.38	3.34872
88.6	6.52243
88.82	13.7275
89.04	5.74496
89.26	12.5525
89.48	0.842912
89.7	9.45925
89.92	13.2528
