Measurement: Powder, Xray Data XY Processed
Mineral: Pentlandite
Rruff sample: R060144
Ideal chemistry: (Ni,Fe)_9_S_8_
Locality: Worthington, Ontario, Canada
Source: University of Arizona Mineral Museum
Description: Bronze-white metallic massive
Diffraction sample description: Powder
Measured chemistry: (Fe_4.80_Ni_4.12_Co_0.08_)_Î£=9_S_8_
Cell parameters: a: 10.0440(1) b: 10.0440(1) c: 10.0440(1) alpha: 90. beta: 90. gamma: 90. volume: 1013.28(3) crystal system: cubic
x	intensity
5	0
5.22	8.31381
5.44	8.51432
5.66	2.20158
5.88	0.2994
6.1	17.1545
6.32	22.7087
6.54	3.40825
6.76	18.1777
6.98	18.8249
7.2	8.81042
7.42	12.6282
7.64	10.4269
7.86	9.57466
8.08	0.328712
8.3	29.9448
8.52	9.88851
8.74	14.9254
8.96	5.60652
9.18	7.04446
9.4	7.25548
9.62	3.02929
9.84	19.6767
10.06	13.0471
10.28	16.4383
10.5	6.19426
10.72	22.7998
10.94	24.0693
11.16	8.73478
11.38	7.32912
11.6	44.9705
11.82	7.56581
12.04	6.55758
12.26	17.3504
12.48	15.2132
12.7	20.7824
12.92	12.0695
13.14	4.7167
13.36	2.40864
13.58	37.2253
13.8	7.23151
14.02	16.2568
14.24	2.6487
14.46	18.1826
14.68	6.25135
14.9	15.7717
15.12	4.37479
15.34	86.6637
15.56	22.7966
15.78	0.964088
16	11.3763
16.22	29.1968
16.44	20.7719
16.66	36.9221
16.88	13.4508
17.1	4.34525
17.32	13.2353
17.54	23.2407
17.76	17.4074
17.98	2.2193
18.2	10.1538
18.42	19.8886
18.64	21.7491
18.86	22.4699
19.08	25.5081
19.3	2.41431
19.52	26.7813
19.74	18.5206
19.96	3.67318
20.18	10.0082
20.4	23.6913
20.62	0.861088
20.84	18.5698
21.06	11.4166
21.28	5.2743
21.5	9.34468
21.72	2.27447
21.94	6.34902
22.16	2.15749
22.38	11.1047
22.6	16.6166
22.82	19.3436
23.04	13.9406
23.26	1.71252
23.48	11.6198
23.7	23.4763
23.92	18.2248
24.14	2.07532
24.36	19.9539
24.58	17.6943
24.8	18.3856
25.02	24.8645
25.24	22.9594
25.46	30.7445
25.68	9.74369
25.9	20.0731
26.12	8.35107
26.34	3.98485
26.56	1.66318
26.78	17.1898
27	20.9473
27.22	9.66996
27.44	15.7453
27.66	17.5882
27.88	5.37537
28.1	12.589
28.32	0.933029
28.54	3.18462
28.76	5.51313
28.98	14.8104
29.2	15.3553
29.42	68.5541
29.64	93.4966
29.86	10.2348
30.08	18.2645
30.3	5.05118
30.52	19.1853
30.74	24.1471
30.96	35.0784
31.18	19.5012
31.4	20.3102
31.62	24.8107
31.84	8.0704
32.06	17.6307
32.28	12.0465
32.5	1.41299
32.72	3.8753
32.94	16.1336
33.16	5.67264
33.38	13.3867
33.6	2.84566
33.82	40.8605
34.04	15.7821
34.26	17.9886
34.48	1.10869
34.7	6.82544
34.92	14.124
35.14	22.9769
35.36	32.3022
35.58	17.0755
35.8	34.465
36.02	15.1313
36.24	24.5706
36.46	4.06161
36.68	23.9064
36.9	15.7271
37.12	32.3816
37.34	8.43241
37.56	1.98185
37.78	25.3861
38	16.1185
38.22	22.1759
38.44	2.80171
38.66	6.64116
38.88	9.54713
39.1	68.9309
39.32	21.9942
39.54	3.15279
39.76	16.1167
39.98	10.1675
40.2	13.4156
40.42	11.844
40.64	13.1919
40.86	18.2629
41.08	19.5787
41.3	15.0642
41.52	14.9619
41.74	21.3605
41.96	30.3917
42.18	18.7975
42.4	22.1967
42.62	31.2045
42.84	6.70425
43.06	16.9256
43.28	8.01988
43.5	10.0443
43.72	19.2428
43.94	33.5824
44.16	12.2698
44.38	28.9041
44.6	4.93056
44.82	12.9264
45.04	4.49716
45.26	9.07304
45.48	0.83252
45.7	5.20843
45.92	35.3179
46.14	20.1385
46.36	7.18365
46.58	2.33738
46.8	3.87431
47.02	60.5609
47.24	5.98058
47.46	11.0115
47.68	26.7448
47.9	11.7316
48.12	21.2841
48.34	20.8931
48.56	7.80985
48.78	2.09261
49	22.4507
49.22	14.4444
49.44	2.17573
49.66	3.34885
49.88	17.3472
50.1	0.613731
50.32	10.3058
50.54	7.57896
50.76	7.2119
50.98	25.2951
51.2	29.9738
51.42	99.4026
51.64	96.6903
51.86	17.2903
52.08	17.7612
52.3	1.61758
52.52	7.24972
52.74	27.9264
52.96	7.0016
53.18	16.8199
53.4	28.9681
53.62	9.08732
53.84	23.6922
54.06	28.2846
54.28	1.97629
54.5	14.7325
54.72	13.8908
54.94	14.4034
55.16	25.2434
55.38	19.6073
55.6	8.55591
55.82	20.0149
56.04	13.3154
56.26	28.3913
56.48	27.1701
56.7	6.28439
56.92	19.8707
57.14	7.30994
57.36	11.8074
57.58	40.4517
57.8	6.26978
58.02	7.69695
58.24	12.3917
58.46	8.99004
58.68	24.4888
58.9	34.8059
59.12	12.3926
59.34	16.7748
59.56	10.8666
59.78	2.05782
60	23.9822
60.22	11.6498
60.44	18.7734
60.66	28.2398
60.88	21.8265
61.1	10.7951
61.32	18.153
61.54	28.7911
61.76	1.91768
61.98	14.9421
62.2	39.0452
62.42	6.93529
62.64	8.4575
62.86	9.14949
63.08	18.6377
63.3	21.0425
63.52	7.6402
63.74	28.7176
63.96	21.8353
64.18	15.3583
64.4	2.32524
64.62	34.5097
64.84	7.60435
65.06	4.59261
65.28	44.1754
65.5	26.7684
65.72	3.38055
65.94	30.8288
66.16	9.84844
66.38	17.3555
66.6	21.5211
66.82	18.849
67.04	26.501
67.26	41.3568
67.48	19.2675
67.7	8.61056
67.92	7.36552
68.14	12.4142
68.36	16.2057
68.58	23.3766
68.8	9.35612
69.02	4.23963
69.24	22.9984
69.46	14.7504
69.68	18.894
69.9	17.1224
70.12	8.97162
70.34	3.62847
70.56	22.127
70.78	5.15753
71	12.9335
71.22	18.3374
71.44	17.5877
71.66	4.3702
71.88	25.8071
72.1	21.1625
72.32	1.05638
72.54	8.79104
72.76	19.9189
72.98	5.97533
73.2	14.7009
73.42	1.82145
73.64	38.1931
73.86	34.952
74.08	25.8739
74.3	1.34838
74.52	5.22193
74.74	19.0601
74.96	4.12945
75.18	14.8513
75.4	16.4561
75.62	20.7289
75.84	25.7422
76.06	17.8493
76.28	24.3458
76.5	9.82471
76.72	4.21371
76.94	10.2673
77.16	24.6827
77.38	11.0151
77.6	2.90198
77.82	0.838905
78.04	28.8016
78.26	26.67
78.48	11.7695
78.7	0.328171
78.92	12.2657
79.14	24.0206
79.36	21.695
79.58	13.4725
79.8	18.4422
80.02	8.12283
80.24	15.1162
80.46	10.768
80.68	16.5463
80.9	10.6918
81.12	16.8938
81.34	11.8122
81.56	16.3709
81.78	18.8422
82	23.5454
82.22	20.3651
82.44	10.7849
82.66	11.7352
82.88	17.0928
83.1	19.8049
83.32	34.1312
83.54	7.76166
83.76	17.412
83.98	6.29651
84.2	25.3681
84.42	40.278
84.64	3.17153
84.86	18.7277
85.08	14.7881
85.3	7.92905
85.52	5.24989
85.74	11.4354
85.96	17.8071
86.18	16.9951
86.4	31.9237
86.62	18.6863
86.84	7.03132
87.06	17.121
87.28	13.9849
87.5	22.1573
87.72	10.5252
87.94	27.3613
88.16	3.69522
88.38	1.01649
88.6	18.5852
88.82	31.8457
89.04	11.9746
89.26	17.1397
89.48	28.1312
89.7	16.99
89.92	19.843
