Measurement: Powder, Xray Data XY Processed
Mineral: Perovskite
Rruff sample: R060345
Ideal chemistry: CaTi^4+^O_3_
Locality: Latrappe, Oka District, Quebec, Canada
Source: Michael Scott
Description: Black square prismatic crystals associated with white calcite, yellow monticellite and yellow diopside
Diffraction sample description: Single crystal, powder profile is calculated
Measured chemistry: (Ca_0.77_Na_0.20_Ce_0.02_La_0.01_)_Σ=1_(Ti_0.50_Nb^5+^_0.36_Fe^3+^_0.08_Fe^2+^_0.03_Mg_0.02_Al_0.01_)_Σ=1_O_3_ ; trace amounts of Mn ; Fe^2+^ and Fe^3+^ estimated by charge balance
Cell parameters: a: 5.441(2) b: 5.493(3) c: 7.727(3) alpha: 90 beta: 90 gamma: 90 volume: 230.91(15) crystal system: orthorhombic
x	intensity
5	0
5.22	0
5.44	0
5.66	0
5.88	0
6.1	0
6.32	0
6.54	0
6.76	0
6.98	0
7.2	0
7.42	0
7.64	0
7.86	0
8.08	0
8.3	0
8.52	0
8.74	0
8.96	0
9.18	0
9.4	0
9.62	0
9.84	0
10.06	0
10.28	0
10.5	0
10.72	0
10.94	0
11.16	0
11.38	0
11.6	0
11.82	0
12.04	0
12.26	0
12.48	0
12.7	0
12.92	0
13.14	0
13.36	0
13.58	0
13.8	0
14.02	0
14.24	0
14.46	0
14.68	0
14.9	0
15.12	0
15.34	0
15.56	0
15.78	0
16	0
16.22	0
16.44	0
16.66	0
16.88	0
17.1	0
17.32	0
17.54	0
17.76	0
17.98	0
18.2	0
18.42	0
18.64	0
18.86	0
19.08	0
19.3	0
19.52	0
19.74	0
19.96	0.027
20.18	0
20.4	0
20.62	0
20.84	0
21.06	0
21.28	0
21.5	0
21.72	0
21.94	0
22.16	0
22.38	0
22.6	0
22.82	0
23.04	12.749
23.26	0
23.48	0
23.7	0
23.92	0
24.14	0
24.36	0
24.58	0
24.8	0
25.02	0
25.24	0
25.46	0
25.68	0.177
25.9	0.016
26.12	0
26.34	0
26.56	0
26.78	0
27	0
27.22	0
27.44	0
27.66	0
27.88	0
28.1	0
28.32	0
28.54	0
28.76	0
28.98	0
29.2	0
29.42	0
29.64	0
29.86	0
30.08	0
30.3	0
30.52	0
30.74	0
30.96	0
31.18	0
31.4	0
31.62	0
31.84	0
32.06	0
32.28	0
32.5	0.696
32.72	73.82
32.94	8.068
33.16	0
33.38	0
33.6	0
33.82	0
34.04	0
34.26	0
34.48	0
34.7	0.944
34.92	0
35.14	0
35.36	0
35.58	0
35.8	0
36.02	0
36.24	0
36.46	0
36.68	0.391
36.9	0.441
37.12	0
37.34	0
37.56	0
37.78	0
38	0
38.22	0
38.44	0.095
38.66	1.248
38.88	0.004
39.1	0
39.32	0
39.54	0
39.76	0
39.98	0
40.2	0.027
40.42	0.01
40.64	0.023
40.86	0
41.08	0
41.3	0
41.52	0
41.74	0
41.96	0
42.18	0.398
42.4	0
42.62	0
42.84	0
43.06	0
43.28	0
43.5	0
43.72	0.086
43.94	0.054
44.16	0
44.38	0
44.6	0
44.82	0
45.04	0
45.26	0
45.48	0
45.7	0
45.92	0
46.14	0
46.36	0
46.58	0
46.8	0
47.02	17.517
47.24	0.016
47.46	0
47.68	0
47.9	0
48.12	0
48.34	0.132
48.56	0.98
48.78	0
49	0
49.22	0
49.44	0
49.66	0
49.88	0
50.1	0
50.32	0
50.54	0
50.76	0
50.98	0
51.2	0
51.42	0.269
51.64	0.04
51.86	0.066
52.08	0
52.3	0
52.52	0
52.74	1.08
52.96	4.193
53.18	0.693
53.4	0.002
53.62	0
53.84	0
54.06	0.3
54.28	0.767
54.5	0.074
54.72	0.083
54.94	0
55.16	0
55.38	0
55.6	0
55.82	0
56.04	0
56.26	0
56.48	0
56.7	0
56.92	0
57.14	0
57.36	0
57.58	0
57.8	0
58.02	0
58.24	11.393
58.46	1.977
58.68	8.797
58.9	0.157
59.12	0
59.34	0
59.56	0
59.78	0.19
60	0.021
60.22	0
60.44	0
60.66	0
60.88	0
61.1	0.033
61.32	0.054
61.54	0
61.76	0
61.98	0
62.2	0
62.42	0.132
62.64	0.031
62.86	0
63.08	0
63.3	0
63.52	0
63.74	0
63.96	0
64.18	0
64.4	0
64.62	0.012
64.84	0.072
65.06	0.007
65.28	0.002
65.5	0
65.72	0
65.94	0.005
66.16	0.023
66.38	0.009
66.6	0
66.82	0
67.04	0
67.26	0
67.48	0
67.7	0
67.92	0
68.14	0.035
68.36	0.111
68.58	2.552
68.8	2.84
69.02	1.194
69.24	0.267
69.46	0.468
69.68	0.208
69.9	0.005
70.12	0
70.34	0
70.56	0
70.78	0.004
71	0.001
71.22	0
71.44	0.019
71.66	0.005
71.88	0.015
72.1	0.025
72.32	0.056
72.54	0.034
72.76	0.004
72.98	0.065
73.2	0.289
73.42	0.52
73.64	0.964
73.86	0.508
74.08	0.054
74.3	0
74.52	0.009
74.74	0.006
74.96	0
75.18	0
75.4	0.055
75.62	0.027
75.84	0
76.06	0.041
76.28	0.018
76.5	0
76.72	0
76.94	0
77.16	0
77.38	0
77.6	0
77.82	0.758
78.04	0.562
78.26	0.354
78.48	0.352
78.7	0.081
78.92	0.103
79.14	0.039
79.36	0.127
79.58	0.115
79.8	0.014
80.02	0
80.24	0
80.46	0
80.68	0
80.9	0
81.12	0
81.34	0.002
81.56	0.003
81.78	0.045
82	0.01
82.22	0
82.44	0.395
82.66	0.198
82.88	0.173
83.1	0.089
83.32	0.057
83.54	0
83.76	0.284
83.98	0.181
84.2	0.054
84.42	0.01
84.64	0
84.86	0
85.08	0
85.3	0
85.52	0
85.74	0
85.96	0
86.18	0
86.4	0
86.62	0
86.84	0.004
87.06	0.15
87.28	0.447
87.5	0
87.72	0.692
87.94	0.744
88.16	0.294
88.38	0.019
88.6	0.002
88.82	0.001
89.04	0.011
89.26	0.01
89.48	0.02
89.7	0.059
89.92	0.016
