Measurement: Powder, Xray Data XY Processed
Mineral: Petarasite
Rruff sample: R060220
Ideal chemistry: Na_5_Zr^4+^_2_Si_6_O_18_(Cl,OH)2H_2_O
Locality: Mont Saint-Hilaire, Rouville County, Quebec, Canada
Source: Rock Currier
Description: Pale yellowish brown massive associated with aegirine, albite, natrolite, astrophyllite and rhodochrosite
Diffraction sample description: Single crystal, powder profile is calculated
Measured chemistry: (Na_4.86_[box]_0.07_Ca_0.06_Mn_0.01_)_Σ=5_Zr_2.00_Si_6.00_O_18_(Cl_0.62_(OH)_0.38_)_Σ=1_·2H_2_O
Cell parameters: a: 10.841(8) b: 14.572(10) c: 6.650(4) alpha: 90 beta: 113.18(3) gamma: 90 volume: 965.7(4) crystal system: monoclinic
x	intensity
5	0
5.22	0
5.44	0
5.66	0
5.88	0
6.1	0
6.32	0
6.54	0
6.76	0
6.98	0
7.2	0
7.42	0
7.64	0
7.86	0
8.08	0
8.3	0
8.52	0
8.74	0
8.96	0.003
9.18	0
9.4	0
9.62	0
9.84	0
10.06	0
10.28	0
10.5	0
10.72	0.526
10.94	0
11.16	0
11.38	0
11.6	0
11.82	0
12.04	0.128
12.26	0.119
12.48	0
12.7	0
12.92	0
13.14	0
13.36	0
13.58	0
13.8	0.001
14.02	0
14.24	0
14.46	47.09
14.68	0
14.9	0.486
15.12	0.012
15.34	0
15.56	0
15.78	0.077
16	0
16.22	0
16.44	0
16.66	0
16.88	0
17.1	0
17.32	0
17.54	0
17.76	6.085
17.98	1.434
18.2	0
18.42	0
18.64	0
18.86	0.5
19.08	0.083
19.3	0
19.52	0
19.74	0.062
19.96	0
20.18	0
20.4	1.133
20.62	0.002
20.84	0.004
21.06	0
21.28	0
21.5	0.78
21.72	12.111
21.94	0.001
22.16	0
22.38	0
22.6	0
22.82	2.698
23.04	0.014
23.26	0.128
23.48	0.001
23.7	0
23.92	0
24.14	0
24.36	0.053
24.58	0
24.8	0
25.02	0.02
25.24	0
25.46	0
25.68	6.624
25.9	0
26.12	0.028
26.34	0
26.56	0
26.78	0.015
27	0.445
27.22	0.209
27.44	0.689
27.66	20.258
27.88	0.177
28.1	0.042
28.32	0.111
28.54	1.731
28.76	0
28.98	0
29.2	53.426
29.42	0
29.64	0.04
29.86	5.372
30.08	0.002
30.3	17.056
30.52	22.674
30.74	0
30.96	0.443
31.18	7.228
31.4	0
31.62	1.998
31.84	2.367
32.06	0.523
32.28	0
32.5	0
32.72	1.602
32.94	0.094
33.16	0.698
33.38	0.041
33.6	0.055
33.82	0.257
34.04	0.079
34.26	0
34.48	0.748
34.7	0
34.92	0
35.14	0.012
35.36	1.418
35.58	0.013
35.8	0.059
36.02	8.82
36.24	2.987
36.46	8.756
36.68	0.836
36.9	1.097
37.12	3.554
37.34	0.017
37.56	0.015
37.78	0
38	0.027
38.22	3.962
38.44	0.439
38.66	0.035
38.88	0.067
39.1	0
39.32	0
39.54	0.001
39.76	0.001
39.98	2.954
40.2	2.078
40.42	0.001
40.64	1.85
40.86	0.082
41.08	0.211
41.3	5.074
41.52	6.632
41.74	0.08
41.96	0.035
42.18	2.786
42.4	0.688
42.62	8.198
42.84	0.087
43.06	0
43.28	0
43.5	0.265
43.72	0.032
43.94	2.028
44.16	5.837
44.38	5.802
44.6	0.49
44.82	0.014
45.04	0.446
45.26	0.019
45.48	0.095
45.7	0.965
45.92	0.746
46.14	1.433
46.36	2.764
46.58	0.926
46.8	1.531
47.02	0.005
47.24	0.047
47.46	0.384
47.68	7.459
47.9	0.042
48.12	3.265
48.34	0.195
48.56	0.003
48.78	0.051
49	0.262
49.22	0.089
49.44	0.494
49.66	0.001
49.88	0
50.1	2.359
50.32	0.317
50.54	3.726
50.76	0.858
50.98	0.763
51.2	4.025
51.42	1.571
51.64	0.07
51.86	3.749
52.08	0.111
52.3	0.248
52.52	2.843
52.74	7.782
52.96	2.067
53.18	0.002
53.4	0.071
53.62	1.741
53.84	0.025
54.06	1.102
54.28	0.968
54.5	0.108
54.72	0.002
54.94	1.879
55.16	0.196
55.38	1.834
55.6	2.224
55.82	1.274
56.04	1.582
56.26	0.955
56.48	0.977
56.7	0.19
56.92	2.233
57.14	0.804
57.36	0.509
57.58	4.633
57.8	2.059
58.02	0.819
58.24	0.043
58.46	0.803
58.68	0.769
58.9	4.149
59.12	2.019
59.34	0.242
59.56	1.57
59.78	2.707
60	0.082
60.22	0.555
60.44	0.324
60.66	0.237
60.88	0.132
61.1	0.283
61.32	3.105
61.54	0.456
61.76	1.332
61.98	7.527
62.2	1.381
62.42	0.446
62.64	0.088
62.86	2.491
63.08	1.942
63.3	0.518
63.52	2.036
63.74	0.298
63.96	6.34
64.18	1.51
64.4	0.067
64.62	1.978
64.84	0.437
65.06	0.074
65.28	0.391
65.5	0.085
65.72	0.084
65.94	2.57
66.16	1.316
66.38	1.696
66.6	0.472
66.82	0.541
67.04	0.659
67.26	0.041
67.48	0.847
67.7	0.952
67.92	0.105
68.14	1.626
68.36	0.93
68.58	0.263
68.8	0.936
69.02	1.033
69.24	1.003
69.46	0.638
69.68	0.142
69.9	0.137
70.12	1.62
70.34	0.58
70.56	0.098
70.78	1.086
71	1.098
71.22	0.715
71.44	1.922
71.66	0.908
71.88	1.359
72.1	0.479
72.32	0.897
72.54	0.534
72.76	1.514
72.98	1.2
73.2	0.533
73.42	0.71
73.64	0.518
73.86	0.52
74.08	0.348
74.3	0.518
74.52	0.386
74.74	0.176
74.96	1.478
75.18	0.745
75.4	0.015
75.62	0.498
75.84	0.669
76.06	0.813
76.28	1.172
76.5	0.57
76.72	0.43
76.94	0.488
77.16	0.255
77.38	1.322
77.6	0.843
77.82	0.378
78.04	0.114
78.26	0.054
78.48	1.22
78.7	1.907
78.92	0.828
79.14	0.994
79.36	0.717
79.58	0.167
79.8	0.498
80.02	0.205
80.24	0.231
80.46	0.094
80.68	0.039
80.9	0.084
81.12	0.947
81.34	0.546
81.56	1.774
81.78	0.686
82	0.106
82.22	0.162
82.44	0.34
82.66	0.462
82.88	0.526
83.1	0.928
83.32	1.319
83.54	0.583
83.76	0.038
83.98	0.073
84.2	0.015
84.42	0.021
84.64	0.016
84.86	0.908
85.08	0.074
85.3	0.04
85.52	0.007
85.74	0.016
85.96	0.708
86.18	1.129
86.4	0.484
86.62	0.466
86.84	1.039
87.06	0.748
87.28	0.85
87.5	1.193
87.72	0.272
87.94	0.274
88.16	0.883
88.38	0.657
88.6	0.542
88.82	0.369
89.04	1.344
89.26	0.532
89.48	0.315
89.7	0.395
89.92	0.897
