Measurement: Powder, Xray Data XY Processed
Mineral: Petalite
Rruff sample: R060365
Ideal chemistry: LiAlSi_4_O_10_
Locality: Paprok, near Kamdesh, Nuristan, Kunar Province, Afghanistan
Source: Herb Obodda
Description: Colorless fragment
Diffraction sample description: Powder
Measured chemistry: Li_1.00_Al_1.00_Si_4.00_O_10_
Cell parameters: a: 11.753(1) b: 5.1391(3) c: 7.6276(3) alpha: 90 beta: 113.040(4) gamma: 90 volume: 423.96(3) crystal system: monoclinic
x	intensity
5	0
5.22	5.647
5.44	13.762
5.66	13.908
5.88	2.215
6.1	8.355
6.32	1.493
6.54	2.663
6.76	10.716
6.98	4.455
7.2	12.67
7.42	1.805
7.64	6.139
7.86	7.434
8.08	6.248
8.3	9.2
8.52	1.321
8.74	8.256
8.96	5.393
9.18	11.512
9.4	5.655
9.62	3.764
9.84	8.156
10.06	5.17
10.28	2.343
10.5	10.948
10.72	2.133
10.94	9.321
11.16	1.36
11.38	2.476
11.6	1.397
11.82	0.538
12.04	0.462
12.26	1.241
12.48	3.22
12.7	2.41
12.92	4.455
13.14	7.366
13.36	7.362
13.58	5.55
13.8	5.373
14.02	0.538
14.24	2.486
14.46	5.325
14.68	5.302
14.9	7.896
15.12	5.732
15.34	3.413
15.56	7.165
15.78	8.798
16	4.695
16.22	3.706
16.44	24.409
16.66	10.585
16.88	7.649
17.1	8.473
17.32	11.429
17.54	1.58
17.76	9.572
17.98	2.527
18.2	0.662
18.42	6.611
18.64	8.683
18.86	6.525
19.08	14.211
19.3	2.065
19.52	9.128
19.74	7.578
19.96	5.396
20.18	4.163
20.4	6.184
20.62	9.102
20.84	7.124
21.06	17.289
21.28	3.444
21.5	14.585
21.72	4.228
21.94	4.659
22.16	9.704
22.38	4.878
22.6	1.913
22.82	2.79
23.04	8.372
23.26	13.09
23.48	9.24
23.7	47.013
23.92	1108.69
24.14	64.413
24.36	237.853
24.58	42.631
24.8	17.011
25.02	1.067
25.24	14.787
25.46	174.692
25.68	11.203
25.9	6.168
26.12	9.265
26.34	0.369
26.56	6.817
26.78	6.429
27	1.801
27.22	10.266
27.44	2.776
27.66	5.551
27.88	6.299
28.1	3.473
28.32	9.099
28.54	11.492
28.76	26.778
28.98	17.167
29.2	31.927
29.42	2.961
29.64	7.808
29.86	21.966
30.08	44.553
30.3	45.821
30.52	12.436
30.74	5.756
30.96	3.044
31.18	13.293
31.4	10.437
31.62	7.661
31.84	0.431
32.06	1.21
32.28	4.143
32.5	4.146
32.72	6.927
32.94	17.831
33.16	39.956
33.38	12.006
33.6	0.228
33.82	5.674
34.04	6.5
34.26	8.516
34.48	7.565
34.7	11.216
34.92	126.993
35.14	10.609
35.36	40.198
35.58	12.846
35.8	9.256
36.02	12.56
36.24	8.847
36.46	2.034
36.68	12.186
36.9	1.307
37.12	19.316
37.34	15.901
37.56	22.408
37.78	13.236
38	6.235
38.22	3.192
38.44	8.25
38.66	4.513
38.88	10.695
39.1	9.861
39.32	14.541
39.54	2.693
39.76	2.007
39.98	9.156
40.2	1.914
40.42	8.596
40.64	9.761
40.86	1.929
41.08	0.24
41.3	4.722
41.52	10.476
41.74	10.899
41.96	11.739
42.18	2.278
42.4	15.984
42.62	2.702
42.84	0.526
43.06	7.992
43.28	2.174
43.5	9.331
43.72	54.42
43.94	14.769
44.16	29.735
44.38	6.004
44.6	11.286
44.82	5.984
45.04	6.337
45.26	5.732
45.48	19.94
45.7	7.682
45.92	10.439
46.14	1.364
46.36	4.668
46.58	7.477
46.8	19.398
47.02	37.334
47.24	8.015
47.46	2.994
47.68	0.078
47.9	15.059
48.12	28.495
48.34	6.784
48.56	6.991
48.78	1.822
49	1.142
49.22	17.392
49.44	6.41
49.66	8.176
49.88	2.17
50.1	9.123
50.32	8.175
50.54	10.63
50.76	11.738
50.98	1.512
51.2	10.519
51.42	9.208
51.64	6.181
51.86	1.806
52.08	35.202
52.3	8.243
52.52	7.391
52.74	9.44
52.96	42.881
53.18	13.862
53.4	23.31
53.62	3.719
53.84	6.016
54.06	8.318
54.28	0.48
54.5	8.745
54.72	10.856
54.94	6.626
55.16	5.577
55.38	5.148
55.6	3.954
55.82	3.724
56.04	12.852
56.26	33.623
56.48	41.449
56.7	0.307
56.92	7.341
57.14	5.447
57.36	4.91
57.58	13.33
57.8	10.498
58.02	16.063
58.24	2.998
58.46	7.806
58.68	2.908
58.9	5.971
59.12	0.615
59.34	4.326
59.56	6.282
59.78	3.609
60	0.565
60.22	0.21
60.44	12.259
60.66	15.31
60.88	15.181
61.1	2.075
61.32	18.017
61.54	5.605
61.76	6.521
61.98	0.576
62.2	1.622
62.42	7.52
62.64	4.76
62.86	21.437
63.08	13.202
63.3	11.092
63.52	6.121
63.74	13.162
63.96	4.117
64.18	21.538
64.4	37.951
64.62	23.947
64.84	12.05
65.06	5.923
65.28	1.86
65.5	11.133
65.72	5.072
65.94	6.084
66.16	7.05
66.38	0.08
66.6	29.74
66.82	9.59
67.04	9.871
67.26	3.263
67.48	13.477
67.7	7.438
67.92	11.658
68.14	1.903
68.36	1.047
68.58	6.194
68.8	7.826
69.02	4.112
69.24	7.192
69.46	11.887
69.68	4.737
69.9	1.232
70.12	6.957
70.34	3.873
70.56	5.932
70.78	2.862
71	10.812
71.22	3.277
71.44	7.286
71.66	6.232
71.88	7.105
72.1	3.167
72.32	7.513
72.54	10.325
72.76	5.278
72.98	11.548
73.2	1.414
73.42	3.382
73.64	16.771
73.86	12.803
74.08	1.322
74.3	5.463
74.52	8.569
74.74	4.119
74.96	2.894
75.18	5.96
75.4	7.558
75.62	4.47
75.84	4.765
76.06	1.338
76.28	8.308
76.5	11.234
76.72	13.175
76.94	3.833
77.16	6.119
77.38	26.174
77.6	7.341
77.82	22.279
78.04	8.296
78.26	0.901
78.48	13.842
78.7	2.958
78.92	20.054
79.14	12.138
79.36	11.317
79.58	6.113
79.8	3.238
80.02	0.534
80.24	7.732
80.46	0.097
80.68	4.33
80.9	5.395
81.12	17.546
81.34	6.551
81.56	3.437
81.78	2.482
82	2.424
82.22	6.052
82.44	7.146
82.66	9.248
82.88	0.107
83.1	6.219
83.32	10.706
83.54	3.785
83.76	7.868
83.98	1.884
84.2	2.159
84.42	1.79
84.64	2.842
84.86	15.571
85.08	1.265
85.3	4.107
85.52	3.708
85.74	5.268
85.96	9.162
86.18	8.03
86.4	2.994
86.62	1.009
86.84	8.202
87.06	1.477
87.28	7.644
87.5	20.851
87.72	8.367
87.94	10.631
88.16	3.65
88.38	3.91
88.6	10.191
88.82	0.574
89.04	8.578
89.26	8.926
89.48	6.802
89.7	7.214
89.92	6.314
