Measurement: Powder, Xray Data XY Processed
Mineral: Petarasite
Rruff sample: R060223
Ideal chemistry: Na_5_Zr^4+^_2_Si_6_O_18_(Cl,OH)2H_2_O
Locality: Demix Quarry, Mont Saint-Hilaire, Rouville County, Quebec, Canada
Source: Royal Ontario Museum
Description: Tan colored cleavage fragment associated with catapleiite
Diffraction sample description: Single crystal, powder profile is calculated
Measured chemistry: (Na_4.82_[box]_0.09_Ca_0.06_Mn_0.02_)_Σ=5_Zr_2.00_Si_6.00_O_18_(Cl_0.63_(OH)_0.37_)_Σ=1_·2H_2_O
Cell parameters: a: 10.7924(9) b: 14.491(1) c: 6.6189(4) alpha: 90 beta: 113.132(4) gamma: 90 volume: 951.9(2) crystal system: monoclinic
x	intensity
5	0
5.22	0
5.44	0
5.66	0
5.88	0
6.1	0
6.32	0
6.54	0
6.76	0
6.98	0
7.2	0
7.42	0
7.64	0
7.86	0
8.08	0
8.3	0
8.52	0
8.74	0
8.96	0.073
9.18	0
9.4	0
9.62	0
9.84	0
10.06	0
10.28	0
10.5	0
10.72	0.015
10.94	0
11.16	0
11.38	0
11.6	0
11.82	0
12.04	0
12.26	36.475
12.48	0
12.7	0
12.92	0
13.14	0
13.36	0
13.58	0
13.8	0.132
14.02	0
14.24	0
14.46	0.758
14.68	0.024
14.9	0
15.12	4.579
15.34	0
15.56	0
15.78	0.34
16	0
16.22	0
16.44	0
16.66	0
16.88	0
17.1	0
17.32	0
17.54	0
17.76	0.018
17.98	0.122
18.2	0.013
18.42	0
18.64	0
18.86	0.008
19.08	9.832
19.3	0
19.52	0
19.74	0
19.96	0.034
20.18	0
20.4	1.862
20.62	0
20.84	0.227
21.06	0
21.28	0
21.5	0
21.72	71.552
21.94	11.108
22.16	0
22.38	0
22.6	0
22.82	0
23.04	15.306
23.26	0
23.48	0.039
23.7	0
23.92	0
24.14	0
24.36	0
24.58	0.245
24.8	0
25.02	0.015
25.24	0
25.46	0
25.68	0
25.9	3.053
26.12	0.035
26.34	0
26.56	0
26.78	0
27	0.217
27.22	0.61
27.44	0
27.66	18.907
27.88	1.062
28.1	0.012
28.32	0.044
28.54	0.005
28.76	0.637
28.98	0
29.2	0.016
29.42	19.564
29.64	0.012
29.86	0.028
30.08	1.506
30.3	2.113
30.52	89.296
30.74	13.768
30.96	0
31.18	2.497
31.4	0.304
31.62	0.001
31.84	8.902
32.06	0.024
32.28	0.148
32.5	0
32.72	0.128
32.94	0.588
33.16	3.914
33.38	0.03
33.6	0.011
33.82	0.03
34.04	0.454
34.26	0.067
34.48	0.007
34.7	0.451
34.92	0
35.14	0
35.36	0.034
35.58	1.426
35.8	0.036
36.02	0.033
36.24	4.608
36.46	3.382
36.68	4.594
36.9	3.35
37.12	0.269
37.34	4.794
37.56	0.002
37.78	0.021
38	0
38.22	0.133
38.44	3.011
38.66	0.257
38.88	0.228
39.1	0.005
39.32	0
39.54	0
39.76	0
39.98	0.002
40.2	2.865
40.42	1.468
40.64	0
40.86	2.98
41.08	0.016
41.3	0.265
41.52	4.074
41.74	5.978
41.96	0.06
42.18	0.117
42.4	3.216
42.62	0.562
42.84	7.355
43.06	0.084
43.28	0
43.5	0
43.72	0.253
43.94	0.034
44.16	2.739
44.38	7.172
44.6	8
44.82	0.485
45.04	0.026
45.26	0.584
45.48	0.017
45.7	0.075
45.92	0.26
46.14	1.484
46.36	1.142
46.58	3.245
46.8	0.59
47.02	1.516
47.24	0.041
47.46	0.032
47.68	0.274
47.9	6.597
48.12	0.02
48.34	1.549
48.56	0.765
48.78	0.005
49	0.027
49.22	0.284
49.44	0.115
49.66	0.516
49.88	0.001
50.1	0
50.32	8.952
50.54	0.653
50.76	1.773
50.98	0.328
51.2	1.479
51.42	2.548
51.64	3.039
51.86	0.13
52.08	0.86
52.3	1.594
52.52	0.029
52.74	0.68
52.96	10.849
53.18	2.977
53.4	0.105
53.62	0.001
53.84	0.29
54.06	0.788
54.28	1.304
54.5	0.295
54.72	0.251
54.94	0.001
55.16	1.373
55.38	0.437
55.6	0.72
55.82	1.194
56.04	2.544
56.26	2.68
56.48	2.054
56.7	0.471
56.92	0.475
57.14	0.624
57.36	1.677
57.58	3.043
57.8	10.05
58.02	2.642
58.24	0.562
58.46	0.009
58.68	0.542
58.9	0.752
59.12	3.299
59.34	4.046
59.56	0.405
59.78	0.002
60	2.406
60.22	0.086
60.44	0.036
60.66	0.508
60.88	0.725
61.1	0.33
61.32	2.182
61.54	1.505
61.76	2.54
61.98	1.168
62.2	4.061
62.42	3.316
62.64	0.128
62.86	0.211
63.08	0.087
63.3	0.993
63.52	1.748
63.74	0.905
63.96	0.964
64.18	0.339
64.4	2.598
64.62	0.169
64.84	0.267
65.06	0.595
65.28	0.1
65.5	0.162
65.72	0.164
65.94	0.042
66.16	0.266
66.38	1.105
66.6	2.505
66.82	1.685
67.04	0.092
67.26	0.864
67.48	0.811
67.7	0.029
67.92	1.054
68.14	0.25
68.36	0.201
68.58	2.015
68.8	0.738
69.02	0.06
69.24	0.32
69.46	0.857
69.68	1.766
69.9	0.533
70.12	0.288
70.34	0.05
70.56	0.621
70.78	0.164
71	1.117
71.22	0.971
71.44	0.133
71.66	0.19
71.88	3.001
72.1	1.329
72.32	1.296
72.54	0.545
72.76	0.113
72.98	0.337
73.2	1.436
73.42	0.998
73.64	0.201
73.86	0.488
74.08	0.389
74.3	0.228
74.52	0.203
74.74	0.498
74.96	0.273
75.18	0.289
75.4	1.181
75.62	0.537
75.84	0.283
76.06	0.24
76.28	0.651
76.5	0.912
76.72	1.63
76.94	1.1
77.16	0.62
77.38	0.824
77.6	0.415
77.82	1.206
78.04	1.138
78.26	0.409
78.48	0.14
78.7	0.104
78.92	0.346
79.14	1.258
79.36	0.722
79.58	0.784
79.8	0.695
80.02	0.234
80.24	0.266
80.46	0.072
80.68	0.164
80.9	0.113
81.12	0.375
81.34	0.131
81.56	0.773
81.78	0.385
82	1.012
82.22	0.236
82.44	0.218
82.66	0.163
82.88	0.234
83.1	0.701
83.32	0.648
83.54	0.967
83.76	1.034
83.98	0.404
84.2	0.266
84.42	0.305
84.64	0.039
84.86	0.008
85.08	0.004
85.3	0.031
85.52	0.303
85.74	0.713
85.96	0.024
86.18	0.035
86.4	0.675
86.62	1.234
86.84	0.318
87.06	0.439
87.28	0.415
87.5	0.207
87.72	0.775
87.94	0.462
88.16	0.892
88.38	1.326
88.6	0.81
88.82	0.586
89.04	0.13
89.26	0.022
89.48	0.339
89.7	0.238
89.92	0.77
