Measurement: Powder, Xray Data XY Processed
Mineral: Petzite
Rruff sample: R070254
Ideal chemistry: Ag_3_AuTe_2_
Locality: Red Jacket mine, Baker County, Oregon, USA
Source: Michael Scott
Description: Steel grey metallic fragments with subconchoidal fracture, sample used as the standard for the ICDD powder diffraction file
Diffraction sample description: Powder
Measured chemistry: Ag_3.00_Au_1.00_Te_2.00_ ; = lighter phase. The darker phase is: Ag_3.00_(Au_0.99_Cu_0.01_)_Î£=1_Te_2.00_
Cell parameters: a: 10.3872(2) b: 10.3872(2) c: 10.3872(2) alpha: 90 beta: 90 gamma: 90 volume: 1120.72(6) crystal system: cubic
x	intensity
5	0
5.22	9.05006
5.44	7.94403
5.66	13.5734
5.88	5.61022
6.1	7.49855
6.32	11.5602
6.54	9.54565
6.76	0.66761
6.98	6.65563
7.2	1.62765
7.42	9.60498
7.64	12.5563
7.86	0.78809
8.08	1.94112
8.3	3.2616
8.52	6.45145
8.74	6.67768
8.96	5.98303
9.18	7.3265
9.4	2.41077
9.62	10.8573
9.84	3.94638
10.06	5.37036
10.28	4.57441
10.5	6.79017
10.72	5.76413
10.94	2.8795
11.16	2.02318
11.38	1.97468
11.6	4.95465
11.82	4.84706
12.04	36.8377
12.26	6.86345
12.48	3.60231
12.7	3.76283
12.92	0.768023
13.14	3.86045
13.36	0.918639
13.58	4.97784
13.8	7.26833
14.02	7.3167
14.24	2.35834
14.46	8.54542
14.68	8.56927
14.9	0.689329
15.12	3.61379
15.34	4.65229
15.56	5.64713
15.78	5.69486
16	5.74672
16.22	7.76143
16.44	2.71678
16.66	2.79512
16.88	10.7487
17.1	3.88859
17.32	2.05195
17.54	3.03692
17.76	0.903517
17.98	2.40113
18.2	3.48051
18.42	5.49033
18.64	12.3616
18.86	0.358392
19.08	3.41834
19.3	1.44382
19.52	0.246824
19.74	4.05121
19.96	4.07315
20.18	5.05997
20.4	1.01627
20.62	0.915071
20.84	3.96718
21.06	7.87097
21.28	1.87921
21.5	3.70337
21.72	5.74894
21.94	5.70899
22.16	1.76873
22.38	0.708214
22.6	4.66193
22.82	0.623672
23.04	4.22226
23.26	5.16229
23.48	0.10255
23.7	6.10597
23.92	11.21
24.14	4.30371
24.36	33.3615
24.58	4.39055
24.8	2.62334
25.02	5.8071
25.24	2.02263
25.46	2.22356
25.68	3.29528
25.9	8.34974
26.12	5.32222
26.34	6.25396
26.56	7.01
26.78	0.028432
27	8.94734
27.22	10.7192
27.44	0.669811
27.66	10.5984
27.88	2.66972
28.1	2.6509
28.32	0.728239
28.54	0.713761
28.76	1.70365
28.98	7.7119
29.2	3.69556
29.42	6.67734
29.64	7.8423
29.86	37.0025
30.08	11.7117
30.3	0.408308
30.52	0.334531
30.74	2.19807
30.96	2.98832
31.18	8.7448
31.4	8.49564
31.62	7.26197
31.84	5.06548
32.06	10.8207
32.28	199.507
32.5	26.6091
32.72	3.59259
32.94	0.153223
33.16	4.96476
33.38	8.10187
33.6	5.26234
33.82	0.536444
34.04	5.83553
34.26	17.0208
34.48	6.15058
34.7	10.1364
34.92	7.29815
35.14	5.51652
35.36	6.30664
35.58	9.20211
35.8	4.15887
36.02	5.15185
36.24	0.937459
36.46	5.78343
36.68	43.6113
36.9	28.6082
37.12	6.66264
37.34	4.1273
37.56	0.123569
37.78	4.69592
38	7.49735
38.22	10.2876
38.44	8.04496
38.66	9.13928
38.88	43.8815
39.1	7.61823
39.32	6.53404
39.54	10.5582
39.76	0.077171
39.98	4.14307
40.2	6.35557
40.42	5.59494
40.64	4.80344
40.86	4.0792
41.08	7.8998
41.3	5.89231
41.52	0.917774
41.74	5.81851
41.96	3.546
42.18	8.46276
42.4	15.5894
42.62	80.5034
42.84	50.4664
43.06	8.3416
43.28	9.14129
43.5	6.13561
43.72	7.12539
43.94	1.2702
44.16	7.32861
44.38	25.3681
44.6	70.385
44.82	5.3484
45.04	4.71102
45.26	4.73252
45.48	1.07067
45.7	1.17666
45.92	6.38563
46.14	0.548116
46.36	2.33373
46.58	6.43464
46.8	7.37195
47.02	1.14906
47.24	0.064455
47.46	2.55679
47.68	3.65129
47.9	24.5061
48.12	28.8224
48.34	9.73987
48.56	2.82129
48.78	3.94873
49	4.02984
49.22	0.805262
49.44	5.60629
49.66	32.7533
49.88	8.9572
50.1	5.0222
50.32	6.03368
50.54	2.93916
50.76	2.12191
50.98	0.222394
51.2	5.24535
51.42	2.24392
51.64	5.30974
51.86	5.03622
52.08	3.09032
52.3	1.07334
52.52	0.060776
52.74	4.10407
52.96	1.13596
53.18	1.1439
53.4	1.12072
53.62	6.19528
53.84	8.24137
54.06	9.22796
54.28	1.28888
54.5	6.50356
54.72	2.59023
54.94	2.71125
55.16	2.63119
55.38	5.62493
55.6	3.54292
55.82	2.74052
56.04	8.7101
56.26	5.68849
56.48	7.82354
56.7	4.84486
56.92	4.68438
57.14	4.80177
57.36	1.73061
57.58	4.68808
57.8	1.62549
58.02	2.45108
58.24	4.59123
58.46	4.69676
58.68	0.468077
58.9	5.37448
59.12	14.1363
59.34	7.68635
59.56	6.51339
59.78	0.387472
60	6.40459
60.22	3.57382
60.44	19.6426
60.66	12.6153
60.88	1.36196
61.1	2.61929
61.32	3.30725
61.54	0.393587
61.76	7.56413
61.98	8.53254
62.2	5.47068
62.42	3.18764
62.64	3.99389
62.86	4.62931
63.08	8.50425
63.3	21.6163
63.52	3.54261
63.74	2.43252
63.96	4.06147
64.18	1.9983
64.4	6.48992
64.62	7.73089
64.84	8.7186
65.06	4.60773
65.28	5.3852
65.5	1.48743
65.72	6.41631
65.94	9.39272
66.16	6.26412
66.38	6.15712
66.6	2.94125
66.82	8.49837
67.04	8.25714
67.26	10.3298
67.48	28.4343
67.7	24.8634
67.92	10.8502
68.14	5.94375
68.36	2.38843
68.58	2.67153
68.8	6.86082
69.02	12.9773
69.24	1.18304
69.46	2.17499
69.68	7.43845
69.9	3.49844
70.12	4.0104
70.34	2.80911
70.56	8.4306
70.78	2.78652
71	3.37291
71.22	11.2614
71.44	25.0792
71.66	32.6424
71.88	8.36564
72.1	0.774256
72.32	6.41404
72.54	8.44988
72.76	8.51589
72.98	7.55851
73.2	7.6804
73.42	4.8737
73.64	0.64203
73.86	0.612813
74.08	9.0663
74.3	12.4999
74.52	5.94115
74.74	6.51843
74.96	8.78257
75.18	3.04125
75.4	2.38921
75.62	0.625282
75.84	4.61623
76.06	4.40895
76.28	5.38908
76.5	10.43
76.72	4.45245
76.94	8.19236
77.16	7.97375
77.38	8.70916
77.6	5.90869
77.82	3.72575
78.04	2.55939
78.26	6.50178
78.48	4.48897
78.7	3.42276
78.92	0.617869
79.14	20.2691
79.36	7.87832
79.58	8.92192
79.8	1.11904
80.02	3.99743
80.24	4.02729
80.46	7.02955
80.68	4.00882
80.9	6.95126
81.12	2.18839
81.34	6.86528
81.56	7.70451
81.78	1.29619
82	10.309
82.22	10.5129
82.44	3.58019
82.66	2.87856
82.88	7.94356
83.1	2.04677
83.32	5.27102
83.54	4.40542
83.76	11.5465
83.98	3.47497
84.2	4.3102
84.42	8.28146
84.64	3.83678
84.86	6.37358
85.08	2.04495
85.3	0.838444
85.52	3.88007
85.74	7.62904
85.96	6.44007
86.18	9.22049
86.4	4.26546
86.62	2.30416
86.84	0.620576
87.06	6.7265
87.28	13.7829
87.5	0.91923
87.72	0.043833
87.94	0.048198
88.16	10.2209
88.38	8.19552
88.6	3.0254
88.82	6.82461
89.04	1.43134
89.26	7.36496
89.48	5.12938
89.7	3.99075
89.92	1.16307
