Measurement: Powder, Xray Data XY Processed
Mineral: Phenakite
Rruff sample: R050137
Ideal chemistry: Be_2_SiO_4_
Locality: Mount Antero area, Chaffee County, Colorado, USA
Source: Dave Bunk Minerals
Description: Colorless tabular hexagonal crystal
Diffraction sample description: Powder
Measured chemistry: Be_2.00_Si_1.00_O_4_
Cell parameters: a: 12.4714(2) b: 12.4714(2) c: 8.2509(2) alpha: 90. beta: 90. gamma: 120. volume: 1111.40(3) crystal system: hexagonal
x	intensity
5	0
5.22	15.364
5.44	5.877
5.66	12.748
5.88	0.934
6.1	11.297
6.32	23.155
6.54	9.782
6.76	2.505
6.98	7.198
7.2	11.871
7.42	5.314
7.64	6.129
7.86	5.74
8.08	7.327
8.3	6.201
8.52	1.278
8.74	8.861
8.96	7.197
9.18	5.422
9.4	1.852
9.62	2.939
9.84	0.202
10.06	12.871
10.28	6.201
10.5	6.554
10.72	2.421
10.94	1.511
11.16	3.554
11.38	2.659
11.6	6.755
11.82	0.655
12.04	6.514
12.26	0.425
12.48	6.73
12.7	12.471
12.92	2.122
13.14	11.927
13.36	5.661
13.58	7.375
13.8	2.161
14.02	13.254
14.24	553.129
14.46	18.777
14.68	10.575
14.9	0.508
15.12	9.848
15.34	7.014
15.56	5.444
15.78	9.806
16	1.516
16.22	4.808
16.44	6.704
16.66	4.992
16.88	10.098
17.1	2.407
17.32	1.398
17.54	5.316
17.76	0.582
17.98	8.759
18.2	8.681
18.42	10.278
18.64	0.206
18.86	8.211
19.08	10.11
19.3	11.897
19.52	8.802
19.74	14.664
19.96	5.897
20.18	13.975
20.4	6.318
20.62	10.57
20.84	8.434
21.06	4.129
21.28	1.321
21.5	0.483
21.72	12.999
21.94	19.32
22.16	5.627
22.38	5.803
22.6	9.87
22.82	10.176
23.04	89.124
23.26	12.32
23.48	3.702
23.7	0.115
23.92	8.433
24.14	23.166
24.36	525.362
24.58	20.313
24.8	185.384
25.02	10.695
25.24	2.316
25.46	10.994
25.68	5.379
25.9	11.823
26.12	2.786
26.34	5.538
26.56	2.913
26.78	7.651
27	0.084
27.22	36.799
27.44	7.117
27.66	4.222
27.88	2.913
28.1	4.276
28.32	2.606
28.54	105.536
28.76	128.256
28.98	14.87
29.2	3.293
29.42	0.57
29.64	1.763
29.86	8.128
30.08	4.344
30.3	14.299
30.52	2.025
30.74	34.192
30.96	19.421
31.18	8.697
31.4	7.593
31.62	18.761
31.84	45.655
32.06	9.832
32.28	0.874
32.5	1.21
32.72	7.426
32.94	5.69
33.16	2.963
33.38	6.975
33.6	15.022
33.82	13.656
34.04	0.295
34.26	2.119
34.48	3.955
34.7	12.834
34.92	12.247
35.14	21.901
35.36	16.767
35.58	79.368
35.8	209.07
36.02	17.172
36.24	0.666
36.46	5.831
36.68	4.158
36.9	7.401
37.12	9.558
37.34	11.678
37.56	1.865
37.78	13.107
38	20.03
38.22	157.794
38.44	11.915
38.66	8.012
38.88	11.745
39.1	5.886
39.32	1.806
39.54	5.014
39.76	8.978
39.98	20.319
40.2	8.037
40.42	0.206
40.64	9.383
40.86	2.599
41.08	22.985
41.3	545.045
41.52	46.719
41.74	9.755
41.96	7.495
42.18	0.603
42.4	0.321
42.62	6.254
42.84	0.318
43.06	3.588
43.28	21.161
43.5	174.292
43.72	38.348
43.94	12.546
44.16	13.647
44.38	0.184
44.6	6.465
44.82	18.67
45.04	7.042
45.26	2.187
45.48	7.133
45.7	10.357
45.92	28.196
46.14	4.281
46.36	1.325
46.58	2.375
46.8	0.041
47.02	13.067
47.24	4.455
47.46	38.818
47.68	11.922
47.9	3.163
48.12	3.537
48.34	13.384
48.56	5.506
48.78	12.566
49	0.306
49.22	6.12
49.44	12.139
49.66	9.792
49.88	10.374
50.1	13.273
50.32	3.216
50.54	3.371
50.76	18.345
50.98	57.179
51.2	16.066
51.42	5.84
51.64	1.589
51.86	1.253
52.08	17.146
52.3	3.331
52.52	15.726
52.74	35.637
52.96	41.167
53.18	6.185
53.4	0.181
53.62	4.527
53.84	9.916
54.06	1.958
54.28	2.04
54.5	1.029
54.72	5.833
54.94	3.312
55.16	17.096
55.38	127.915
55.6	23.879
55.82	1.818
56.04	11.18
56.26	6.967
56.48	7.007
56.7	6.099
56.92	2.388
57.14	19.708
57.36	10.144
57.58	9.385
57.8	1.918
58.02	5.847
58.24	5.752
58.46	4.047
58.68	2.386
58.9	4.51
59.12	4.174
59.34	1.732
59.56	7.662
59.78	1.491
60	1.383
60.22	2.893
60.44	6.631
60.66	12.417
60.88	4.343
61.1	8.792
61.32	13.773
61.54	90.468
61.76	23.732
61.98	3.805
62.2	19.74
62.42	12.019
62.64	0.314
62.86	8.66
63.08	17.115
63.3	12.079
63.52	6.252
63.74	0.345
63.96	11.357
64.18	8.223
64.4	17.364
64.62	10.559
64.84	1.432
65.06	8.606
65.28	24.565
65.5	10.373
65.72	10.392
65.94	6.484
66.16	10.424
66.38	8.539
66.6	8.698
66.82	9.45
67.04	3.378
67.26	4.27
67.48	5.94
67.7	7.687
67.92	13.614
68.14	136.49
68.36	74.881
68.58	1.429
68.8	6.485
69.02	17.391
69.24	7.658
69.46	9.022
69.68	3.216
69.9	7.718
70.12	0.043
70.34	7.433
70.56	15.766
70.78	16.501
71	1.659
71.22	7.923
71.44	7.026
71.66	7.984
71.88	5.797
72.1	8.265
72.32	2.023
72.54	7.999
72.76	3.672
72.98	0.315
73.2	9.122
73.42	10.729
73.64	5.184
73.86	9.764
74.08	6.346
74.3	5.192
74.52	6.357
74.74	183.208
74.96	100.025
75.18	8.424
75.4	16.735
75.62	12.801
75.84	3.387
76.06	5.915
76.28	3.328
76.5	8.562
76.72	5.036
76.94	3.195
77.16	1.157
77.38	11.018
77.6	5.515
77.82	1.532
78.04	5.382
78.26	10.92
78.48	14.957
78.7	13.971
78.92	2.971
79.14	7.862
79.36	3.153
79.58	1.486
79.8	11.699
80.02	16.935
80.24	10.015
80.46	2.523
80.68	7.84
80.9	45.106
81.12	26.43
81.34	7.68
81.56	5.553
81.78	9.653
82	4.801
82.22	3.097
82.44	6.307
82.66	1.283
82.88	3.132
83.1	6.922
83.32	6.661
83.54	5.318
83.76	0.254
83.98	3.354
84.2	8.33
84.42	21.142
84.64	12.911
84.86	9.776
85.08	3.936
85.3	3.886
85.52	8.128
85.74	9.332
85.96	4.497
86.18	3.976
86.4	3.002
86.62	4.126
86.84	6.377
87.06	4.667
87.28	3.851
87.5	7.107
87.72	9.577
87.94	9.804
88.16	6.965
88.38	3.871
88.6	6.654
88.82	12.419
89.04	6.569
89.26	12.655
89.48	8.911
89.7	5.505
89.92	5.014
