Measurement: Powder, Xray Data XY Processed
Mineral: Phenakite
Rruff sample: R040046
Ideal chemistry: Be_2_SiO_4_
Locality: San Miguel de Piracicaba, Minas Gerais, Brazil
Source: University of Arizona Mineral Museum
Description: Colorless crystal fragments
Diffraction sample description: Powder
Measured chemistry: Be_2.02_Si_0.99_O_4_
Cell parameters: a: 12.4710(2) b: 12.4710(2) c: 8.2510(2) alpha: 90. beta: 90. gamma: 120. volume: 1111.33(3) crystal system: hexagonal
x	intensity
5	0
5.22	21.292
5.44	6.283
5.66	7.516
5.88	12.551
6.1	6.831
6.32	7.096
6.54	11.03
6.76	12.152
6.98	3.184
7.2	1.955
7.42	8.843
7.64	13.724
7.86	5.357
8.08	9.921
8.3	4.281
8.52	6.671
8.74	5.109
8.96	6.491
9.18	4.866
9.4	10.398
9.62	7.113
9.84	7.329
10.06	6.673
10.28	12.191
10.5	8.75
10.72	10.005
10.94	8.691
11.16	14.073
11.38	16.313
11.6	7.29
11.82	14.052
12.04	13.959
12.26	10.885
12.48	5.865
12.7	9.365
12.92	4
13.14	8.533
13.36	10.773
13.58	2.803
13.8	18.852
14.02	22.551
14.24	841.345
14.46	11.888
14.68	9.894
14.9	9.653
15.12	3.235
15.34	10.642
15.56	5.042
15.78	5.389
16	2.782
16.22	1.1
16.44	2.446
16.66	10.001
16.88	9.348
17.1	0.501
17.32	9.444
17.54	5.025
17.76	3.272
17.98	5.734
18.2	0.037
18.42	7.879
18.64	2.537
18.86	6.281
19.08	4.766
19.3	3.526
19.52	13.534
19.74	17.253
19.96	6.146
20.18	14.142
20.4	11.878
20.62	1.276
20.84	23.599
21.06	10.982
21.28	5.701
21.5	9.954
21.72	4.121
21.94	26.905
22.16	10.963
22.38	9.259
22.6	4.221
22.82	4.234
23.04	139.103
23.26	6.446
23.48	10.534
23.7	9.982
23.92	16.009
24.14	28.223
24.36	832.494
24.58	49.668
24.8	268.555
25.02	10.383
25.24	15.94
25.46	6.569
25.68	7.199
25.9	2.351
26.12	13.856
26.34	12.196
26.56	0.992
26.78	6.003
27	1.04
27.22	37.488
27.44	7.951
27.66	6.519
27.88	1.596
28.1	0.98
28.32	22.554
28.54	118.692
28.76	140.437
28.98	17.919
29.2	13.357
29.42	15.64
29.64	10.881
29.86	6.005
30.08	1.789
30.3	5.628
30.52	14.92
30.74	33.101
30.96	18.892
31.18	12.942
31.4	7.168
31.62	14.723
31.84	62.129
32.06	17.823
32.28	6.545
32.5	2.959
32.72	13.775
32.94	2.217
33.16	2.437
33.38	1.046
33.6	2.63
33.82	10.841
34.04	7.003
34.26	9.692
34.48	13.991
34.7	3.625
34.92	17.354
35.14	16.349
35.36	12.2
35.58	103.524
35.8	226.156
36.02	22.207
36.24	2.325
36.46	4.641
36.68	2.858
36.9	0.001
37.12	15.198
37.34	2.436
37.56	7.472
37.78	0.169
38	15.758
38.22	211.265
38.44	22.746
38.66	3.635
38.88	4.55
39.1	13.268
39.32	2.443
39.54	5.4
39.76	9.199
39.98	37.016
40.2	8.51
40.42	4.029
40.64	15.385
40.86	16.208
41.08	40.287
41.3	925.226
41.52	48.744
41.74	8.023
41.96	0.023
42.18	5.121
42.4	8.192
42.62	3.275
42.84	7.35
43.06	9.965
43.28	13.974
43.5	335.836
43.72	45.901
43.94	5.219
44.16	2.559
44.38	0.455
44.6	6.705
44.82	27.009
45.04	4.339
45.26	0.994
45.48	7.213
45.7	20.666
45.92	21.024
46.14	5.3
46.36	8.555
46.58	1.69
46.8	6.321
47.02	3.559
47.24	6.88
47.46	59.508
47.68	17.255
47.9	9.218
48.12	2.734
48.34	8.675
48.56	7.571
48.78	5.348
49	6.283
49.22	13.036
49.44	16.36
49.66	20.743
49.88	7.332
50.1	7.737
50.32	4.939
50.54	5.245
50.76	16.734
50.98	69.699
51.2	34.012
51.42	3.038
51.64	1.982
51.86	11.469
52.08	37.6
52.3	1.772
52.52	10.414
52.74	46.615
52.96	85.38
53.18	13.027
53.4	0.217
53.62	4.356
53.84	3.49
54.06	4.518
54.28	1.475
54.5	1.363
54.72	7.377
54.94	5.816
55.16	10.518
55.38	128.93
55.6	13.979
55.82	12.437
56.04	1.221
56.26	13.496
56.48	18.657
56.7	6.015
56.92	8.388
57.14	6.491
57.36	0.138
57.58	10.069
57.8	18.474
58.02	1.252
58.24	22.485
58.46	5.663
58.68	4.021
58.9	6.466
59.12	5.546
59.34	2.412
59.56	5.207
59.78	9.07
60	12.798
60.22	3.225
60.44	33.094
60.66	32.632
60.88	7.939
61.1	13.03
61.32	8.219
61.54	114.862
61.76	29.862
61.98	4.814
62.2	17.553
62.42	6.973
62.64	11.681
62.86	5.714
63.08	14.964
63.3	9.294
63.52	13.949
63.74	5.298
63.96	9.457
64.18	3.307
64.4	18.362
64.62	15.552
64.84	5.681
65.06	7.163
65.28	30.672
65.5	5.782
65.72	6.474
65.94	2.389
66.16	9.664
66.38	12.416
66.6	6.576
66.82	0.283
67.04	1.374
67.26	1.032
67.48	9.297
67.7	4.165
67.92	3.009
68.14	105.309
68.36	62.987
68.58	5.062
68.8	12.674
69.02	14.763
69.24	14.134
69.46	3.587
69.68	5.198
69.9	7.234
70.12	5.756
70.34	1.449
70.56	14.095
70.78	5.263
71	3.289
71.22	7.413
71.44	7.594
71.66	10.439
71.88	5.699
72.1	10.647
72.32	0.58
72.54	13.956
72.76	6.333
72.98	3.586
73.2	2.188
73.42	7.549
73.64	1.782
73.86	8.2
74.08	5.686
74.3	1.796
74.52	15.161
74.74	220.985
74.96	155.585
75.18	18.859
75.4	1.345
75.62	9.196
75.84	6.143
76.06	5.867
76.28	5.388
76.5	0.003
76.72	1.325
76.94	0.462
77.16	10.297
77.38	9.974
77.6	1.843
77.82	5.017
78.04	7.266
78.26	25.781
78.48	16.442
78.7	6.254
78.92	12.968
79.14	15.12
79.36	5.265
79.58	1.723
79.8	19.911
80.02	11.123
80.24	12.015
80.46	9.768
80.68	0.045
80.9	33.495
81.12	28.816
81.34	10.134
81.56	0.313
81.78	7.508
82	4.886
82.22	5.141
82.44	3.358
82.66	11.932
82.88	0.078
83.1	5.092
83.32	5.924
83.54	9.977
83.76	4.238
83.98	7.485
84.2	6.286
84.42	28.948
84.64	13.871
84.86	0.19
85.08	6.977
85.3	5.906
85.52	6.065
85.74	26.298
85.96	9.674
86.18	4.703
86.4	4.584
86.62	2.457
86.84	7.763
87.06	8.035
87.28	3.317
87.5	9.601
87.72	8.776
87.94	8.838
88.16	11.785
88.38	0.951
88.6	5.883
88.82	6.393
89.04	2.159
89.26	9.199
89.48	7.188
89.7	7.818
89.92	3.898
