Measurement: Powder, Xray Data XY Processed
Mineral: Phenakite
Rruff sample: R040132
Ideal chemistry: Be_2_SiO_4_
Locality: Krager√∏, Telemark, Norway
Source: University of Arizona Mineral Museum
Description: Colorless fragments
Diffraction sample description: Powder
Measured chemistry: Be_2.02_Si_0.99_O_4_
Cell parameters: a: 12.4719(2) b: 12.4719(2) c: 8.2514(2) alpha: 90. beta: 90. gamma: 120. volume: 1111.54(3) crystal system: hexagonal
x	intensity
5	0
5.22	5.61664
5.44	7.95199
5.66	6.55639
5.88	10.5435
6.1	11.5698
6.32	2.67376
6.54	18.9549
6.76	10.9008
6.98	9.2367
7.2	9.56186
7.42	9.1446
7.64	7.71108
7.86	7.2563
8.08	7.358
8.3	11.9975
8.52	12.5597
8.74	1.29495
8.96	13.026
9.18	7.46375
9.4	11.26
9.62	12.6979
9.84	3.9404
10.06	12.2812
10.28	7.54157
10.5	8.73546
10.72	2.9284
10.94	9.88272
11.16	4.49608
11.38	8.62493
11.6	4.48132
11.82	3.42049
12.04	6.17701
12.26	6.25221
12.48	3.03535
12.7	8.0611
12.92	1.86122
13.14	7.54636
13.36	6.31617
13.58	9.72638
13.8	2.40662
14.02	13.2739
14.24	560.585
14.46	10.6685
14.68	7.76752
14.9	9.0298
15.12	14.3166
15.34	3.64787
15.56	13.3585
15.78	1.40864
16	6.87319
16.22	6.85362
16.44	9.93324
16.66	7.78397
16.88	9.19051
17.1	7.88464
17.32	10.7719
17.54	2.53669
17.76	7.16291
17.98	9.95646
18.2	7.97797
18.42	7.02361
18.64	0.902391
18.86	8.81163
19.08	5.089
19.3	1.64787
19.52	0.843454
19.74	3.55052
19.96	8.53598
20.18	1.82751
20.4	4.93158
20.62	11.1332
20.84	12.7621
21.06	3.67578
21.28	3.91854
21.5	9.52417
21.72	11.5244
21.94	20.8001
22.16	8.23573
22.38	8.65674
22.6	3.07411
22.82	0.046041
23.04	109.871
23.26	6.0314
23.48	4.24325
23.7	9.12278
23.92	14.4034
24.14	23.8382
24.36	503.798
24.58	25.0513
24.8	185.236
25.02	2.83298
25.24	3.76783
25.46	0.607103
25.68	3.04478
25.9	3.38702
26.12	1.03367
26.34	3.07411
26.56	15.8598
26.78	8.14341
27	9.99418
27.22	36.7023
27.44	7.62941
27.66	9.85582
27.88	12.2281
28.1	0.950359
28.32	16.7887
28.54	83.1596
28.76	89.9039
28.98	10.7478
29.2	11.2073
29.42	6.62074
29.64	2.67772
29.86	2.67081
30.08	0.715645
30.3	4.76127
30.52	6.74818
30.74	25.6154
30.96	14.3281
31.18	8.82428
31.4	17.7093
31.62	10.3896
31.84	49.4792
32.06	4.08235
32.28	6.30925
32.5	12.0753
32.72	2.81933
32.94	6.01175
33.16	7.86546
33.38	2.25321
33.6	1.00931
33.82	7.06094
34.04	8.30232
34.26	14.786
34.48	6.5778
34.7	2.52369
34.92	10.3545
35.14	0.888996
35.36	14.3965
35.58	70.3701
35.8	103.588
36.02	21.0143
36.24	3.36674
36.46	4.23071
36.68	0.600624
36.9	0.474945
37.12	12.6143
37.34	9.58052
37.56	10.6682
37.78	0.955572
38	15.5869
38.22	134.387
38.44	14.5983
38.66	3.82103
38.88	7.02223
39.1	12.4969
39.32	2.94496
39.54	0.712125
39.76	7.85292
39.98	20.7928
40.2	7.69949
40.42	0.626475
40.64	8.27641
40.86	4.30073
41.08	38.5836
41.3	570.839
41.52	24.9871
41.74	14.0148
41.96	4.38159
42.18	7.2388
42.4	0.027603
42.62	9.79053
42.84	4.85759
43.06	12.8499
43.28	14.8553
43.5	376.478
43.72	28.1293
43.94	3.32637
44.16	1.1702
44.38	6.10377
44.6	5.35928
44.82	17.6491
45.04	7.3821
45.26	4.43124
45.48	10.6604
45.7	5.97113
45.92	14.1376
46.14	7.06304
46.36	15.0754
46.58	0.82474
46.8	7.46699
47.02	15.5091
47.24	5.60216
47.46	59.6018
47.68	18.1051
47.9	4.79674
48.12	6.51159
48.34	7.69362
48.56	6.67256
48.78	7.86803
49	19.6373
49.22	9.26449
49.44	12.5925
49.66	16.3197
49.88	4.64203
50.1	1.08356
50.32	7.15594
50.54	3.92772
50.76	11.557
50.98	48.5206
51.2	9.41363
51.42	6.40412
51.64	3.022
51.86	7.0095
52.08	27.355
52.3	0.210712
52.52	5.18591
52.74	29.431
52.96	46.0674
53.18	9.43637
53.4	7.94992
53.62	2.30142
53.84	0.944198
54.06	11.1956
54.28	7.35545
54.5	0.719483
54.72	14.3653
54.94	6.42559
55.16	8.94114
55.38	109.729
55.6	26.3488
55.82	3.18511
56.04	12.0643
56.26	2.85644
56.48	10.1726
56.7	3.26305
56.92	9.63057
57.14	14.5702
57.36	1.92201
57.58	11.1782
57.8	2.60392
58.02	5.86278
58.24	14.0597
58.46	5.37131
58.68	8.45203
58.9	7.08213
59.12	9.24657
59.34	6.92841
59.56	7.57454
59.78	3.83026
60	17.4085
60.22	6.73494
60.44	16.1716
60.66	30.457
60.88	4.28111
61.1	10.7777
61.32	10.671
61.54	88.0101
61.76	20.1424
61.98	13.4534
62.2	24.7361
62.42	1.48679
62.64	3.15604
62.86	0.450513
63.08	2.98604
63.3	4.11881
63.52	7.49505
63.74	1.78132
63.96	6.12163
64.18	3.05088
64.4	20.105
64.62	16.2552
64.84	0.810285
65.06	7.64913
65.28	15.6565
65.5	11.6236
65.72	2.79609
65.94	5.50843
66.16	5.67957
66.38	15.9246
66.6	8.23975
66.82	5.12395
67.04	3.9287
67.26	3.6802
67.48	3.51302
67.7	3.44304
67.92	2.18169
68.14	141.811
68.36	76.0137
68.58	0.930435
68.8	4.62911
69.02	7.6009
69.24	10.9939
69.46	4.25969
69.68	8.55002
69.9	0.222793
70.12	7.54825
70.34	2.23017
70.56	8.72273
70.78	10.0732
71	4.85841
71.22	2.43678
71.44	7.79467
71.66	3.58934
71.88	14.1641
72.1	10.1325
72.32	3.999
72.54	9.88992
72.76	7.3725
72.98	0.146804
73.2	9.06172
73.42	2.71845
73.64	7.27372
73.86	3.68701
74.08	9.40409
74.3	2.15786
74.52	14.9709
74.74	159.443
74.96	81.6078
75.18	6.74911
75.4	13.4259
75.62	15.4726
75.84	11.1492
76.06	9.59742
76.28	10.2246
76.5	0.486328
76.72	11.2556
76.94	4.5201
77.16	3.72078
77.38	11.5928
77.6	3.53335
77.82	0.754223
78.04	1.76049
78.26	14.7211
78.48	20.2546
78.7	11.197
78.92	5.17522
79.14	8.29309
79.36	0.755688
79.58	7.69166
79.8	5.80316
80.02	6.95975
80.24	9.02796
80.46	0.081079
80.68	5.10121
80.9	40.3501
81.12	20.6831
81.34	3.10368
81.56	3.97272
81.78	6.17944
82	6.98624
82.22	5.35273
82.44	3.66654
82.66	10.8412
82.88	4.32058
83.1	5.27003
83.32	5.21504
83.54	2.0499
83.76	0.269771
83.98	9.19608
84.2	4.04415
84.42	27.9047
84.64	10.7531
84.86	7.51903
85.08	4.38273
85.3	8.97084
85.52	11.0899
85.74	25.4606
85.96	10.8647
86.18	10.5449
86.4	0.755136
86.62	6.02185
86.84	16.2776
87.06	2.34819
87.28	4.65635
87.5	0.956991
87.72	5.30932
87.94	8.30025
88.16	6.24389
88.38	5.99114
88.6	9.85943
88.82	4.63903
89.04	7.66883
89.26	9.38729
89.48	1.75269
89.7	7.84277
89.92	6.78297
