Measurement: Powder, Xray Data XY Processed
Mineral: Phillipsite-Ca
Rruff sample: R050078
Ideal chemistry: Ca_3_(Si_10_Al_6_)O_32_12H_2_O
Locality: Grant County, Oregon, USA
Source: Rock Currier
Description: White tabular hexagonal
Diffraction sample description: Powder
Measured chemistry: (Ca_0.90_K_0.75_[box]_0.25_Na_0.10_)_Σ=2_(Si_5.35_Al_2.65_)_Σ=8_O_16_·6H_2_O
Cell parameters: a: 9.8993(6) b: 14.236(2) c: 8.6726(9) alpha: 90 beta: 124.513(6) gamma: 90 volume: 1007.1(0) crystal system: monoclinic
x	intensity
5	0
5.22	15.454
5.44	4.301
5.66	7.619
5.88	15.675
6.1	2.021
6.32	15.375
6.54	11.97
6.76	3.928
6.98	9.595
7.2	8.231
7.42	8.999
7.64	17.996
7.86	1.645
8.08	10.248
8.3	13.959
8.52	6.447
8.74	0.06
8.96	16.328
9.18	16.365
9.4	4.538
9.62	1.129
9.84	5.544
10.06	8.274
10.28	8.315
10.5	7.106
10.72	0.474
10.94	46.185
11.16	5.517
11.38	10.194
11.6	7.594
11.82	5.229
12.04	12.137
12.26	33.801
12.48	325.412
12.7	13.019
12.92	2.816
13.14	10.405
13.36	3.489
13.58	4.879
13.8	17.048
14.02	5.663
14.24	9.077
14.46	5.297
14.68	10.59
14.9	8.815
15.12	11.075
15.34	0.911
15.56	12.689
15.78	0.515
16	7.175
16.22	1.315
16.44	34.579
16.66	23.309
16.88	10.777
17.1	7.709
17.32	10.017
17.54	37.08
17.76	8.803
17.98	125.188
18.2	7.901
18.42	4.62
18.64	0.071
18.86	16.805
19.08	13.572
19.3	7.921
19.52	2.1
19.74	3.175
19.96	2.969
20.18	14.5
20.4	19.183
20.62	27.522
20.84	14.806
21.06	6.434
21.28	8.921
21.5	22.212
21.72	154.899
21.94	66.157
22.16	3.123
22.38	2.322
22.6	3.507
22.82	0.697
23.04	4.652
23.26	1.007
23.48	8.165
23.7	0.128
23.92	4.544
24.14	12.434
24.36	22.788
24.58	16.985
24.8	3.999
25.02	0.913
25.24	11.49
25.46	1.822
25.68	22.638
25.9	20.887
26.12	11.671
26.34	2.533
26.56	1.282
26.78	22.375
27	7.409
27.22	29.367
27.44	71.475
27.66	20.917
27.88	93.747
28.1	181.204
28.32	11.376
28.54	87.847
28.76	13.246
28.98	17.21
29.2	12.557
29.42	24.054
29.64	9.673
29.86	4.281
30.08	8.444
30.3	0.888
30.52	74.124
30.74	12.732
30.96	31.97
31.18	27.971
31.4	8.264
31.62	6.898
31.84	15.978
32.06	1.007
32.28	2.98
32.5	27.872
32.72	62.798
32.94	4.807
33.16	76.767
33.38	94.911
33.6	35.763
33.82	21.66
34.04	4.956
34.26	5.323
34.48	6.633
34.7	4.234
34.92	20.825
35.14	8.356
35.36	12.08
35.58	28.147
35.8	6.667
36.02	13.169
36.24	6.231
36.46	2.483
36.68	11.697
36.9	5.89
37.12	16.868
37.34	15.976
37.56	6.875
37.78	38.734
38	11.201
38.22	4.093
38.44	13.366
38.66	35.088
38.88	13.314
39.1	18.222
39.32	4.171
39.54	4.065
39.76	4.134
39.98	9.321
40.2	16.488
40.42	14.475
40.64	4.453
40.86	0.885
41.08	8.833
41.3	0.607
41.52	10.109
41.74	11.612
41.96	14.625
42.18	11.571
42.4	11.007
42.62	19.854
42.84	8.013
43.06	8.113
43.28	0.923
43.5	19.082
43.72	9.288
43.94	13.892
44.16	10.779
44.38	8.708
44.6	14.553
44.82	1.12
45.04	3.64
45.26	4.464
45.48	5.32
45.7	4.424
45.92	12.32
46.14	25.52
46.36	16.772
46.58	5.747
46.8	5.893
47.02	2.261
47.24	3.678
47.46	4.5
47.68	16.34
47.9	11.564
48.12	8.133
48.34	10.286
48.56	3.128
48.78	0.282
49	14.438
49.22	4.3
49.44	5.885
49.66	6.262
49.88	11.417
50.1	22.442
50.32	12.116
50.54	9.504
50.76	6.099
50.98	14.326
51.2	29.121
51.42	14.365
51.64	33.175
51.86	26.779
52.08	4.427
52.3	6.08
52.52	7.622
52.74	0.548
52.96	23.416
53.18	21.023
53.4	20.23
53.62	27.777
53.84	8.698
54.06	2.144
54.28	10.285
54.5	13.341
54.72	9.09
54.94	12.866
55.16	15.183
55.38	2.71
55.6	0.6
55.82	6.529
56.04	5.414
56.26	17.422
56.48	13.453
56.7	1.825
56.92	1.142
57.14	6.57
57.36	4.931
57.58	11.271
57.8	21.898
58.02	6.288
58.24	2.637
58.46	1.929
58.68	9.129
58.9	6.355
59.12	5.574
59.34	15.623
59.56	3.644
59.78	16.583
60	14.499
60.22	9.296
60.44	10.24
60.66	10.05
60.88	9.232
61.1	10.125
61.32	11.992
61.54	2.186
61.76	4.617
61.98	5.572
62.2	16.429
62.42	6.175
62.64	17.145
62.86	3.874
63.08	3.091
63.3	13.829
63.52	8.801
63.74	8.987
63.96	0.977
64.18	0.129
64.4	8.825
64.62	4.818
64.84	12.003
65.06	14.667
65.28	9.619
65.5	11.609
65.72	5.884
65.94	2.689
66.16	9.713
66.38	1.233
66.6	12.238
66.82	7.327
67.04	5.329
67.26	8.21
67.48	8.957
67.7	8.945
67.92	15.816
68.14	11.621
68.36	7.886
68.58	16.99
68.8	10.02
69.02	1.348
69.24	5.49
69.46	10.187
69.68	9.249
69.9	1.342
70.12	1.43
70.34	2.249
70.56	4.495
70.78	11.342
71	10.275
71.22	19.172
71.44	12.065
71.66	8.225
71.88	9.238
72.1	3.747
72.32	12.386
72.54	13.72
72.76	6.805
72.98	2.643
73.2	7.615
73.42	6.33
73.64	5.359
73.86	3.131
74.08	18.731
74.3	8.541
74.52	16.159
74.74	8.982
74.96	4.862
75.18	9.063
75.4	14.113
75.62	8.683
75.84	2.852
76.06	4.943
76.28	2.71
76.5	11.375
76.72	9.724
76.94	7.798
77.16	0.495
77.38	16.417
77.6	2.741
77.82	12.612
78.04	12.407
78.26	5.409
78.48	9.374
78.7	3.246
78.92	7.814
79.14	2.631
79.36	7.617
79.58	7.713
79.8	11.791
80.02	4.128
80.24	4.705
80.46	2.708
80.68	7.038
80.9	2.079
81.12	0.002
81.34	8.661
81.56	7.062
81.78	9.222
82	8.331
82.22	3.571
82.44	3.994
82.66	11.235
82.88	8.414
83.1	5.293
83.32	11.421
83.54	4.523
83.76	1.575
83.98	2.285
84.2	2.228
84.42	4.138
84.64	3.272
84.86	1.919
85.08	5.82
85.3	10.696
85.52	4.712
85.74	8.826
85.96	7.426
86.18	7.42
86.4	7.63
86.62	6.9
86.84	10.26
87.06	8.042
87.28	7.304
87.5	1.491
87.72	3.745
87.94	14.874
88.16	7.987
88.38	11.595
88.6	4.766
88.82	3.099
89.04	3.083
89.26	1.272
89.48	3.347
89.7	12.826
89.92	8.168
