Measurement: Powder, Xray Data XY Processed
Mineral: Philipsbornite
Rruff sample: R060683
Ideal chemistry: Pb^2+^Al_3_(As^5+^O_4_)(As^5+^O_3_OH)(OH)_6_
Locality: Gold Hill, Nevada, USA
Source: Bob Jenkins
Description: Aggregate of olive green spheroidal masses
Diffraction sample description: Powder
Measured chemistry: light: Pb_1.00_(Al_2.60_Fe^3+^_0.40_)_Σ=3_[(As_0.85_S_0.15_)O_4_]_2_((OH)_5.30_(H_2_O)_0.70_)_Σ=6_; dark : Pb_1.00_(Al_2.76_Fe^3+^_0.24_)_Σ=3_[(As_0.75_S_0.25_)O_4_]_2_((OH)_5.49_(H_2_O)_0.51_)_Σ=6_; OH  by charge balance; traces Cu, Zn, S
Cell parameters: a: 7.0881(2) b: 7.0881(2) c: 16.9946(7) alpha: 90 beta: 90 gamma: 120 volume: 739.44(4) crystal system: hexagonal
x	intensity
5	0
5.22	5.97037
5.44	11.6087
5.66	19.183
5.88	4.7523
6.1	4.52262
6.32	12.1531
6.54	13.4836
6.76	16.5149
6.98	6.95471
7.2	7.65213
7.42	6.42895
7.64	9.22427
7.86	10.722
8.08	5.02704
8.3	16.0616
8.52	6.25513
8.74	0.742894
8.96	9.90894
9.18	7.63871
9.4	4.4683
9.62	6.58374
9.84	8.54007
10.06	6.46873
10.28	8.5794
10.5	2.97106
10.72	6.94166
10.94	5.96198
11.16	7.81778
11.38	8.49815
11.6	5.55142
11.82	10.5609
12.04	10.4596
12.26	9.45515
12.48	8.35708
12.7	7.30977
12.92	0.038297
13.14	6.45586
13.36	8.20516
13.58	5.02339
13.8	0.703568
14.02	0.774861
14.24	3.81852
14.46	5.14577
14.68	11.855
14.9	31.4302
15.12	43.548
15.34	246.257
15.56	52.3019
15.78	37.8591
16	21.8286
16.22	4.36108
16.44	13.7531
16.66	12.1123
16.88	4.33788
17.1	13.6722
17.32	2.54889
17.54	3.81446
17.76	7.647
17.98	3.57705
18.2	4.3911
18.42	7.41141
18.64	5.53006
18.86	5.35607
19.08	1.43967
19.3	2.74885
19.52	8.78736
19.74	4.57379
19.96	3.37762
20.18	13.3192
20.4	9.89686
20.62	13.2579
20.84	2.57349
21.06	6.18268
21.28	2.36956
21.5	6.45782
21.72	5.9214
21.94	2.76831
22.16	11.1346
22.38	1.97331
22.6	8.90977
22.82	7.25152
23.04	4.45407
23.26	8.79326
23.48	8.00986
23.7	1.4125
23.92	2.53731
24.14	7.34259
24.36	12.7968
24.58	8.27691
24.8	20.9089
25.02	83.5609
25.24	169.637
25.46	41.0849
25.68	18.5189
25.9	3.84849
26.12	2.07528
26.34	0.323778
26.56	17.3151
26.78	18.8251
27	12.9598
27.22	12.3709
27.44	3.19607
27.66	1.28011
27.88	4.94238
28.1	7.14968
28.32	0.241991
28.54	5.30479
28.76	7.07324
28.98	25.6012
29.2	18.8069
29.42	16.7521
29.64	138.016
29.86	231.499
30.08	36.4301
30.3	16.6201
30.52	9.99614
30.74	8.44606
30.96	19.7757
31.18	7.72342
31.4	14.8066
31.62	39.7481
31.84	14.2594
32.06	2.74618
32.28	0.923975
32.5	7.81318
32.72	2.66017
32.94	5.44103
33.16	2.19574
33.38	1.89148
33.6	7.39428
33.82	9.53294
34.04	18.6863
34.26	5.36923
34.48	11.3368
34.7	6.19272
34.92	15.0438
35.14	7.81745
35.36	20.5581
35.58	12.3294
35.8	7.19184
36.02	13.1855
36.24	19.0929
36.46	12.9873
36.68	5.39681
36.9	2.49819
37.12	0.536072
37.34	6.69203
37.56	9.74673
37.78	6.9521
38	18.2711
38.22	3.47821
38.44	8.44707
38.66	9.44493
38.88	10.4121
39.1	5.06525
39.32	14.0477
39.54	32.9721
39.76	16.0755
39.98	103.71
40.2	33.4029
40.42	19.6884
40.64	16.5074
40.86	44.8364
41.08	18.8546
41.3	5.98149
41.52	5.55615
41.74	11.7446
41.96	0.139492
42.18	8.95525
42.4	6.04629
42.62	18.6936
42.84	7.99992
43.06	9.66994
43.28	18.3081
43.5	7.08631
43.72	6.32451
43.94	7.93377
44.16	19.6813
44.38	29.5631
44.6	36.8781
44.82	5.83882
45.04	8.94638
45.26	9.23349
45.48	5.02826
45.7	16.705
45.92	16.4161
46.14	8.26341
46.36	1.94805
46.58	5.80203
46.8	11.471
47.02	27.8866
47.24	59.2624
47.46	30.9171
47.68	9.0128
47.9	3.96092
48.12	1.58818
48.34	2.12647
48.56	7.57151
48.78	13.9366
49	4.33291
49.22	9.75697
49.44	6.74091
49.66	18.177
49.88	16.508
50.1	5.00817
50.32	1.09831
50.54	4.66245
50.76	3.27732
50.98	1.13509
51.2	15.9249
51.42	17.7089
51.64	35.4774
51.86	23.5028
52.08	4.29561
52.3	23.848
52.52	15.6895
52.74	4.86453
52.96	0.300518
53.18	8.02519
53.4	4.78773
53.62	4.51992
53.84	4.96997
54.06	1.45847
54.28	12.7055
54.5	16.7606
54.72	18.9925
54.94	28.0317
55.16	29.7149
55.38	16.3695
55.6	7.71644
55.82	4.47682
56.04	6.30747
56.26	4.33122
56.48	3.29257
56.7	0.467966
56.92	1.14967
57.14	4.58089
57.36	2.9251
57.58	0.627159
57.8	1.99042
58.02	11.1245
58.24	12.8105
58.46	8.06262
58.68	4.92118
58.9	6.73618
59.12	6.14364
59.34	5.12664
59.56	3.23377
59.78	4.91903
60	13.5622
60.22	3.20553
60.44	6.73806
60.66	1.70435
60.88	2.28874
61.1	6.60223
61.32	0.074427
61.54	21.8038
61.76	29.5371
61.98	19.3499
62.2	4.40922
62.42	23.983
62.64	21.5018
62.86	9.25711
63.08	8.12432
63.3	1.73613
63.52	19.2889
63.74	7.90792
63.96	2.59246
64.18	12.8857
64.4	10.5371
64.62	14.5866
64.84	14.9453
65.06	4.64016
65.28	5.67841
65.5	4.09114
65.72	7.77014
65.94	8.40517
66.16	5.96249
66.38	2.58194
66.6	8.06939
66.82	7.23019
67.04	20.2069
67.26	20.0064
67.48	5.03245
67.7	5.95502
67.92	4.59595
68.14	4.22325
68.36	20.67
68.58	9.12251
68.8	12.431
69.02	6.71826
69.24	3.8585
69.46	3.68898
69.68	4.60272
69.9	1.94809
70.12	0.545016
70.34	9.97509
70.56	14.7369
70.78	6.54037
71	9.40314
71.22	8.15033
71.44	9.91973
71.66	1.27623
71.88	3.64351
72.1	6.21742
72.32	4.11686
72.54	17.0956
72.76	10.9116
72.98	5.87824
73.2	2.01219
73.42	9.69464
73.64	0.005222
73.86	0.655975
74.08	3.25009
74.3	9.55758
74.52	10.3142
74.74	3.46411
74.96	3.72488
75.18	17.0545
75.4	4.23982
75.62	6.15078
75.84	6.79597
76.06	6.84428
76.28	11.1645
76.5	9.9905
76.72	1.46686
76.94	3.68011
77.16	6.47841
77.38	21.3315
77.6	16.9929
77.82	4.7105
78.04	0.375524
78.26	15.3046
78.48	5.29625
78.7	14.7159
78.92	4.23309
79.14	8.30952
79.36	10.2278
79.58	3.41765
79.8	7.54314
80.02	2.61492
80.24	0.24431
80.46	6.87893
80.68	6.96586
80.9	3.17063
81.12	2.29427
81.34	1.63918
81.56	14.3881
81.78	7.64344
82	1.42297
82.22	3.72639
82.44	7.75521
82.66	6.90509
82.88	6.14493
83.1	6.25555
83.32	9.90404
83.54	9.76675
83.76	0.587978
83.98	7.24033
84.2	4.98266
84.42	0.85033
84.64	11.8084
84.86	14.2875
85.08	14.4107
85.3	11.2117
85.52	10.1888
85.74	6.95641
85.96	11.2176
86.18	14.4312
86.4	0.810696
86.62	11.4862
86.84	8.69708
87.06	8.71006
87.28	4.45608
87.5	9.51346
87.72	17.5863
87.94	2.71856
88.16	7.32526
88.38	10.4008
88.6	13.2809
88.82	3.98607
89.04	2.57248
89.26	7.54958
89.48	13.4679
89.7	19.37
89.92	7.62205
