Measurement: Powder, Xray Data XY Processed
Mineral: Phlogopite
Rruff sample: R050485
Ideal chemistry: KMg_3_(Si_3_Al)O_10_(OH)_2_
Locality: Libby, Montana, USA
Source: California Institute of Technology
Description: Green micaceous fragment
Diffraction sample description: Powder
Measured chemistry: (K_0.92_Na_0.06_Ca_0.02_)(Mg_0.80_Fe^2+^_0.17_Ti_0.02_Cr_0.01_)_3_(Si_2.83_Al_1.17_)O_10_(OH)_2_
Cell parameters: a: 5.2874(8) b: 9.5213(7) c: 10.3428(3) alpha: 90 beta: 101.802(8) gamma: 90 volume: 509.68(5) crystal system: monoclinic
x	intensity
5	0
5.22	4.009
5.44	23.838
5.66	18.71
5.88	22.268
6.1	25.025
6.32	25.658
6.54	16
6.76	12.838
6.98	16.47
7.2	11.037
7.42	90.741
7.64	165.649
7.86	403.078
8.08	487.191
8.3	257.727
8.52	296.76
8.74	3848.78
8.96	126.319
9.18	2.002
9.4	6.421
9.62	1.471
9.84	6.999
10.06	1.452
10.28	20.839
10.5	29.642
10.72	12.925
10.94	8.75
11.16	9.008
11.38	15.166
11.6	8.722
11.82	4.776
12.04	10.575
12.26	11.895
12.48	4.697
12.7	13.942
12.92	1.579
13.14	8.596
13.36	1.389
13.58	15.882
13.8	1.189
14.02	5.514
14.24	12.669
14.46	9.901
14.68	11.468
14.9	7.51
15.12	0.901
15.34	11.535
15.56	2.224
15.78	3.854
16	3.801
16.22	1.545
16.44	1.024
16.66	4.029
16.88	12.972
17.1	5.156
17.32	7.184
17.54	68.374
17.76	14.854
17.98	14.402
18.2	8.708
18.42	3.534
18.64	2.172
18.86	4.523
19.08	11.87
19.3	17.684
19.52	4.021
19.74	1.441
19.96	12.341
20.18	9.253
20.4	1.077
20.62	5.641
20.84	10.562
21.06	0.518
21.28	16.659
21.5	9.684
21.72	12.221
21.94	8.522
22.16	4.365
22.38	12.155
22.6	19.199
22.82	1.614
23.04	1.34
23.26	14.385
23.48	15.604
23.7	7.192
23.92	11.366
24.14	1.126
24.36	22.531
24.58	0.488
24.8	0.286
25.02	17.923
25.24	5.379
25.46	17.496
25.68	29.78
25.9	34.067
26.12	55.223
26.34	549.649
26.56	175.309
26.78	37.37
27	11.065
27.22	3.259
27.44	16.199
27.66	13.438
27.88	15.292
28.1	17.652
28.32	20.863
28.54	46.42
28.76	37.015
28.98	1.127
29.2	7.666
29.42	0.294
29.64	0.804
29.86	1.471
30.08	11.822
30.3	18.78
30.52	8.553
30.74	4.526
30.96	4.032
31.18	19.393
31.4	17.342
31.62	3.126
31.84	5.787
32.06	2.242
32.28	2.623
32.5	20.366
32.72	26.745
32.94	32.485
33.16	15.748
33.38	18.534
33.6	4.091
33.82	0.493
34.04	7.704
34.26	11.074
34.48	1.493
34.7	2.68
34.92	21.012
35.14	11.848
35.36	41.901
35.58	102.194
35.8	14.716
36.02	5.517
36.24	0.534
36.46	6.132
36.68	11.284
36.9	16.413
37.12	15.711
37.34	0.309
37.56	3.111
37.78	23.493
38	6.637
38.22	9.222
38.44	7.332
38.66	10.821
38.88	1.151
39.1	6.174
39.32	11.165
39.54	10.913
39.76	1.66
39.98	3.519
40.2	15.494
40.42	10.759
40.64	0.928
40.86	20.129
41.08	4.625
41.3	13.208
41.52	13.336
41.74	5.34
41.96	14.589
42.18	2.614
42.4	14.21
42.62	0.492
42.84	16.877
43.06	2.989
43.28	30.028
43.5	26.299
43.72	3.436
43.94	0.383
44.16	20.46
44.38	13.174
44.6	35.68
44.82	215.103
45.04	55.679
45.26	14.124
45.48	1.566
45.7	8.916
45.92	6.495
46.14	12.559
46.36	7.749
46.58	0.829
46.8	5.499
47.02	0.518
47.24	3.715
47.46	17.84
47.68	0.044
47.9	6.98
48.12	17.559
48.34	7.01
48.56	8.171
48.78	9.249
49	12.051
49.22	0.665
49.44	3.789
49.66	9.941
49.88	3.451
50.1	2.699
50.32	17.722
50.54	9.127
50.76	5.396
50.98	5.358
51.2	2.395
51.42	8.217
51.64	5.062
51.86	3.836
52.08	0.945
52.3	13.956
52.52	13.798
52.74	12.335
52.96	3.793
53.18	8.565
53.4	11.309
53.62	7.976
53.84	3.915
54.06	9.131
54.28	19.222
54.5	10.054
54.72	12.508
54.94	8.553
55.16	10.029
55.38	2.585
55.6	3.867
55.82	8.244
56.04	9.541
56.26	8.414
56.48	18.35
56.7	6.204
56.92	16.142
57.14	9.555
57.36	11.673
57.58	22.702
57.8	14.521
58.02	4.789
58.24	1.707
58.46	2.678
58.68	2
58.9	5.124
59.12	0.363
59.34	18.536
59.56	15.342
59.78	3.895
60	4.061
60.22	14.97
60.44	7.554
60.66	3.89
60.88	5.044
61.1	4.785
61.32	9.852
61.54	5.838
61.76	7.118
61.98	7.625
62.2	4.236
62.42	13.068
62.64	3.088
62.86	3.981
63.08	17.264
63.3	7.79
63.52	7.921
63.74	1.755
63.96	9.017
64.18	2.559
64.4	35.962
64.62	22.481
64.84	7.596
65.06	6.911
65.28	6.452
65.5	1.22
65.72	11.052
65.94	9.946
66.16	1.226
66.38	9.502
66.6	17.199
66.82	9.815
67.04	6.687
67.26	1.8
67.48	4.193
67.7	11.244
67.92	0.448
68.14	11.495
68.36	25.526
68.58	4.336
68.8	4.886
69.02	2.754
69.24	11.934
69.46	12.149
69.68	9.035
69.9	1.463
70.12	10.129
70.34	4.575
70.56	13.877
70.78	1.261
71	1.952
71.22	13.121
71.44	6.086
71.66	7.279
71.88	16.493
72.1	11.455
72.32	5.751
72.54	11.001
72.76	8.853
72.98	0.16
73.2	7.1
73.42	3.918
73.64	9.359
73.86	4.998
74.08	6.855
74.3	5.405
74.52	15.92
74.74	2.094
74.96	21.318
75.18	16.377
75.4	1.264
75.62	6.218
75.84	0.324
76.06	0.353
76.28	9.181
76.5	7.423
76.72	10.939
76.94	10.284
77.16	5.858
77.38	8.52
77.6	10.796
77.82	1.01
78.04	3.279
78.26	8.661
78.48	6.534
78.7	11.519
78.92	1.369
79.14	4.842
79.36	11.994
79.58	2.883
79.8	6.363
80.02	11.992
80.24	7.101
80.46	2.863
80.68	0.976
80.9	7.454
81.12	15.323
81.34	3.481
81.56	20.487
81.78	0.291
82	6.156
82.22	11.036
82.44	11.277
82.66	4.479
82.88	4.826
83.1	6.581
83.32	7.294
83.54	1.137
83.76	6.293
83.98	4.442
84.2	14.73
84.42	7.545
84.64	8.242
84.86	11.041
85.08	8.912
85.3	4.834
85.52	5.87
85.74	13.061
85.96	17.049
86.18	9.879
86.4	6.569
86.62	4.675
86.84	5.71
87.06	5.281
87.28	0.593
87.5	19.693
87.72	0.377
87.94	5.134
88.16	5.061
88.38	2.289
88.6	7.76
88.82	0.215
89.04	8.851
89.26	5.987
89.48	0.663
89.7	4.453
89.92	1.652
