Measurement: Powder, Xray Data XY Processed
Mineral: Phoenicochroite
Rruff sample: R050587
Ideal chemistry: Pb^2+^_2_O(Cr^6+^O_4_)
Locality: Potter Cramer mine, Maricopa County, Arizona, USA
Source: Marcus Origlieri
Description: Thin coating that includes red gemmy crystalline fragments in some places
Diffraction sample description: Single crystal, powder profile is calculated
Measured chemistry: Pb_2.05_O(Cr_0.98_O_4_)
Cell parameters: a: 14.004(4) b: 5.662(2) c: 7.135(2) alpha: 90 beta: 115.28(2) gamma: 90 volume: 511.5(2) crystal system: monoclinic
x	intensity
5	0
5.22	0
5.44	0
5.66	0
5.88	0
6.1	0
6.32	0
6.54	0
6.76	0
6.98	0
7.2	0
7.42	0
7.64	0
7.86	0
8.08	0
8.3	0
8.52	0
8.74	0
8.96	0
9.18	0
9.4	0
9.62	0
9.84	0
10.06	0
10.28	0
10.5	0
10.72	0
10.94	0
11.16	0
11.38	0
11.6	0
11.82	0
12.04	0
12.26	0
12.48	0
12.7	0
12.92	0
13.14	0
13.36	0
13.58	0
13.8	1.288
14.02	14.149
14.24	0
14.46	0
14.68	0
14.9	2.88
15.12	0
15.34	0
15.56	0
15.78	0
16	0
16.22	0
16.44	0
16.66	0
16.88	0
17.1	0.764
17.32	0
17.54	0
17.76	0
17.98	0
18.2	0
18.42	0
18.64	0
18.86	0
19.08	0
19.3	0
19.52	0
19.74	0
19.96	0.446
20.18	0.03
20.4	0
20.62	0
20.84	0
21.06	0
21.28	0
21.5	0
21.72	0
21.94	0
22.16	0
22.38	0
22.6	0
22.82	0
23.04	0
23.26	0
23.48	7.115
23.7	0
23.92	1.444
24.14	0
24.36	0
24.58	0
24.8	0
25.02	0.626
25.24	2.488
25.46	0.196
25.68	0
25.9	0
26.12	0
26.34	83.768
26.56	0
26.78	0
27	0
27.22	0
27.44	0
27.66	8.968
27.88	0
28.1	0.052
28.32	0.005
28.54	0
28.76	0
28.98	0
29.2	0
29.42	0
29.64	0
29.86	4.777
30.08	12.463
30.3	0
30.52	0
30.74	0
30.96	0.545
31.18	1.731
31.4	0
31.62	19.804
31.84	0
32.06	0
32.28	0
32.5	0
32.72	0
32.94	0
33.16	0
33.38	0
33.6	0
33.82	2.092
34.04	0.001
34.26	0
34.48	0.017
34.7	2.746
34.92	0.001
35.14	2.218
35.36	0.002
35.58	0
35.8	6.47
36.02	0
36.24	11.959
36.46	0.223
36.68	0.789
36.9	0
37.12	0
37.34	0
37.56	0
37.78	0
38	4.371
38.22	0
38.44	0
38.66	0.001
38.88	3.76
39.1	0.263
39.32	0.002
39.54	0
39.76	13.799
39.98	0.112
40.2	0
40.42	0
40.64	0.002
40.86	0.009
41.08	0.451
41.3	3.013
41.52	0.001
41.74	0
41.96	0.061
42.18	0.001
42.4	1.563
42.62	0.773
42.84	6
43.06	0.001
43.28	0
43.5	0
43.72	0
43.94	0.061
44.16	9.046
44.38	0
44.6	0
44.82	0.002
45.04	0.515
45.26	0
45.48	0.396
45.7	1.247
45.92	0
46.14	0
46.36	0
46.58	3.757
46.8	0.016
47.02	0
47.24	0
47.46	0
47.68	0
47.9	0
48.12	0.002
48.34	0
48.56	6.601
48.78	12.685
49	2.103
49.22	1.023
49.44	0
49.66	0
49.88	0.091
50.1	0.745
50.32	0.718
50.54	0
50.76	0.018
50.98	0.215
51.2	0.01
51.42	4.229
51.64	6.586
51.86	0.86
52.08	0.206
52.3	1.632
52.52	0.507
52.74	0.003
52.96	0.014
53.18	2.312
53.4	0.859
53.62	0.008
53.84	0.009
54.06	0.091
54.28	1.744
54.5	0
54.72	0
54.94	0.012
55.16	0.923
55.38	5.867
55.6	0.08
55.82	0.208
56.04	1.562
56.26	0
56.48	3.128
56.7	6.121
56.92	0.511
57.14	0
57.36	4.128
57.58	0.079
57.8	0.076
58.02	0.016
58.24	1.337
58.46	0.139
58.68	0.209
58.9	0.182
59.12	1.024
59.34	0
59.56	0
59.78	0
60	0
60.22	0
60.44	0.028
60.66	0.795
60.88	0.043
61.1	0.77
61.32	0.339
61.54	3.766
61.76	6.765
61.98	1.666
62.2	0.597
62.42	1.538
62.64	0.154
62.86	0.203
63.08	0.355
63.3	5.91
63.52	1.963
63.74	1.543
63.96	1.366
64.18	0.001
64.4	0
64.62	0
64.84	0
65.06	0
65.28	0.105
65.5	0.556
65.72	0.291
65.94	3.785
66.16	1.217
66.38	0
66.6	0.02
66.82	0.052
67.04	0.194
67.26	0.012
67.48	0.002
67.7	0.411
67.92	0.463
68.14	0.075
68.36	0.222
68.58	1.628
68.8	0.622
69.02	0.003
69.24	0.07
69.46	0.011
69.68	0
69.9	0
70.12	0
70.34	0.003
70.56	0.004
70.78	0.27
71	0.599
71.22	1.51
71.44	0.672
71.66	0.018
71.88	0.051
72.1	0.035
72.32	0.154
72.54	1.513
72.76	0.717
72.98	0.299
73.2	0.136
73.42	0.032
73.64	0.003
73.86	0
74.08	2.461
74.3	1.222
74.52	0.647
74.74	0.318
74.96	0.134
75.18	0.069
75.4	0.996
75.62	0.498
75.84	0.906
76.06	0.422
76.28	0
76.5	0.051
76.72	0.023
76.94	0.394
77.16	0.259
77.38	0.033
77.6	2.323
77.82	1.731
78.04	0.691
78.26	0.164
78.48	0
78.7	2.643
78.92	1.017
79.14	1.704
79.36	1.003
79.58	0.031
79.8	2.069
80.02	0.613
80.24	0.036
80.46	0.015
80.68	0.039
80.9	0.008
81.12	0.887
81.34	0.502
81.56	0.795
81.78	0.141
82	1.469
82.22	0.622
82.44	0
82.66	0
82.88	0
83.1	0
83.32	0
83.54	0.124
83.76	0.772
83.98	0.684
84.2	0.534
84.42	0
84.64	0
84.86	0
85.08	0.001
85.3	0.161
85.52	1.02
85.74	0.88
85.96	0.025
86.18	0.689
86.4	0.399
86.62	0.003
86.84	0
87.06	0.2
87.28	0.068
87.5	0.004
87.72	0.005
87.94	0.001
88.16	1.392
88.38	0.126
88.6	0.138
88.82	1.188
89.04	0.618
89.26	0.059
89.48	0.652
89.7	0.551
89.92	0.096
