Measurement: Powder, Xray Data XY Processed
Mineral: Phosgenite
Rruff sample: R050640
Ideal chemistry: Pb^2+^_2_CO_3_Cl_2_
Locality: Monte Poni, Sardinia, Italy
Source: University of Arizona Mineral Museum
Description: Gray rectangular prismatic crystal
Diffraction sample description: Powder
Measured chemistry: Pb_2.00_(CO_3_)Cl_2.03_ ; C estimated by difference
Cell parameters: a: 8.1599(1) b: 8.1599(1) c: 8.8757(4) alpha: 90. beta: 90. gamma: 90. volume: 590.99(3) crystal system: tetragonal
x	intensity
5	0
5.22	14.2254
5.44	7.51204
5.66	7.96367
5.88	6.40321
6.1	8.73816
6.32	6.06166
6.54	8.58302
6.76	6.80992
6.98	5.11533
7.2	15.4283
7.42	3.75067
7.64	7.0037
7.86	1.17344
8.08	2.76799
8.3	5.89488
8.52	8.28638
8.74	2.47557
8.96	3.45777
9.18	1.67198
9.4	5.79289
9.62	3.84642
9.84	1.94895
10.06	0.84383
10.28	0.134409
10.5	5.76095
10.72	1.84637
10.94	0.734049
11.16	3.78491
11.38	5.73615
11.6	3.79651
11.82	4.9995
12.04	0.029693
12.26	0.158719
12.48	1.202
12.7	1.27851
12.92	0.200566
13.14	3.19622
13.36	3.37857
13.58	0.27628
13.8	3.16564
14.02	7.05773
14.24	0.121872
14.46	0.181752
14.68	4.65109
14.9	3.53043
15.12	3.62633
15.34	11.7528
15.56	7.73757
15.78	1.60143
16	1.73646
16.22	0.77621
16.44	1.19379
16.66	6.08263
16.88	4.14368
17.1	6.21496
17.32	5.33344
17.54	5.19582
17.76	2.40721
17.98	7.39836
18.2	3.7539
18.42	7.77575
18.64	5.79215
18.86	3.79975
19.08	4.54373
19.3	2.48946
19.52	7.49609
19.74	10.4937
19.96	19.3746
20.18	26.0245
20.4	0.916493
20.62	3.49014
20.84	4.28497
21.06	1.23632
21.28	7.25089
21.5	1.29865
21.72	8.39588
21.94	30.3622
22.16	0.601484
22.38	2.30378
22.6	0.749378
22.82	1.22326
23.04	0.187184
23.26	3.05
23.48	2.86337
23.7	0.364842
23.92	2.41659
24.14	7.21177
24.36	21.8674
24.58	21.9397
24.8	6.92405
25.02	0.142169
25.24	1.2471
25.46	8.33253
25.68	3.52825
25.9	4.71885
26.12	2.90361
26.34	5.25102
26.56	10.4573
26.78	12.5909
27	0.386511
27.22	5.59527
27.44	2.58286
27.66	4.64319
27.88	2.75745
28.1	3.83451
28.32	0.175969
28.54	6.20212
28.76	7.93448
28.98	3.88686
29.2	7.79809
29.42	3.84521
29.64	1.70387
29.86	24.4487
30.08	8.11199
30.3	4.85278
30.52	1.48644
30.74	3.87551
30.96	1.60609
31.18	4.67648
31.4	9.41535
31.62	18.5105
31.84	256.353
32.06	20.2765
32.28	5.3738
32.5	1.51409
32.72	3.73711
32.94	6.95691
33.16	2.36423
33.38	8.56657
33.6	1.46682
33.82	3.61089
34.04	1.52903
34.26	5.63084
34.48	1.89193
34.7	10.9812
34.92	99.1591
35.14	9.26503
35.36	6.30127
35.58	9.22202
35.8	7.31298
36.02	1.4618
36.24	2.49463
36.46	3.51513
36.68	5.52298
36.9	5.478
37.12	5.6134
37.34	11.5158
37.56	1.47293
37.78	2.62751
38	1.53565
38.22	3.4219
38.44	2.26497
38.66	4.33527
38.88	0.422523
39.1	1.40401
39.32	15.0327
39.54	8.93611
39.76	4.80119
39.98	7.75926
40.2	2.60766
40.42	23.5696
40.64	19.8836
40.86	15.9216
41.08	5.93676
41.3	2.8848
41.52	5.99004
41.74	9.20865
41.96	8.40844
42.18	2.55976
42.4	8.5645
42.62	7.54802
42.84	3.51911
43.06	3.2721
43.28	1.1762
43.5	6.92473
43.72	7.77843
43.94	3.61539
44.16	5.45939
44.38	5.45328
44.6	7.34844
44.82	5.13477
45.04	4.13135
45.26	5.55893
45.48	6.38409
45.7	9.30181
45.92	71.4769
46.14	6.25202
46.36	1.96408
46.58	8.87373
46.8	13.4179
47.02	2.69328
47.24	17.2002
47.46	25.2852
47.68	0.867662
47.9	11.2506
48.12	52.3218
48.34	2.49007
48.56	2.97996
48.78	4.38834
49	6.49519
49.22	15.6107
49.44	2.70676
49.66	5.75994
49.88	1.39422
50.1	5.53339
50.32	12.2882
50.54	132.307
50.76	27.9018
50.98	4.58163
51.2	1.42542
51.42	6.50054
51.64	3.60199
51.86	49.0215
52.08	9.24987
52.3	5.62284
52.52	2.81456
52.74	4.90965
52.96	9.98137
53.18	6.07985
53.4	3.15525
53.62	4.11047
53.84	3.1056
54.06	0.226271
54.28	5.84523
54.5	20.8901
54.72	29.9911
54.94	3.83055
55.16	4.01676
55.38	0.055476
55.6	1.84212
55.82	2.24362
56.04	3.43846
56.26	4.47695
56.48	8.47709
56.7	7.49072
56.92	6.42552
57.14	3.26295
57.36	11.2515
57.58	2.12803
57.8	9.16002
58.02	3.21125
58.24	3.30055
58.46	2.19709
58.68	1.2653
58.9	1.37782
59.12	6.3999
59.34	0.423047
59.56	2.4042
59.78	3.64135
60	3.55279
60.22	6.42446
60.44	2.31868
60.66	4.19813
60.88	1.98544
61.1	8.93829
61.32	5.61502
61.54	7.78946
61.76	10.4825
61.98	2.20727
62.2	1.92395
62.42	3.27677
62.64	1.15715
62.86	13.98
63.08	18.806
63.3	18.8129
63.52	3.66497
63.74	2.57454
63.96	4.19233
64.18	15.1572
64.4	5.4547
64.62	1.63465
64.84	7.38491
65.06	59.5744
65.28	29.5821
65.5	5.77737
65.72	1.17916
65.94	1.97411
66.16	3.08849
66.38	9.28343
66.6	10.5708
66.82	7.48906
67.04	9.56754
67.26	8.43465
67.48	5.30105
67.7	4.22454
67.92	4.23117
68.14	6.13545
68.36	13.0354
68.58	9.05621
68.8	2.03568
69.02	13.9354
69.24	11.1743
69.46	5.92926
69.68	1.99583
69.9	0.829451
70.12	6.31775
70.34	6.41487
70.56	17.6052
70.78	8.68334
71	3.82404
71.22	1.71761
71.44	6.58226
71.66	1.15001
71.88	4.08059
72.1	5.11439
72.32	4.0969
72.54	0.141551
72.76	22.9424
72.98	13.7713
73.2	1.1659
73.42	7.77986
73.64	4.7981
73.86	10.9392
74.08	8.13796
74.3	2.33329
74.52	7.32834
74.74	2.2221
74.96	0.30948
75.18	0.224518
75.4	1.44665
75.62	4.47467
75.84	5.49997
76.06	8.53622
76.28	4.59369
76.5	4.48217
76.72	0.323627
76.94	11.2689
77.16	7.22298
77.38	0.475281
77.6	7.47348
77.82	8.36594
78.04	20.3772
78.26	15.5147
78.48	0.554142
78.7	4.50362
78.92	6.64689
79.14	5.65521
79.36	2.75361
79.58	0.989992
79.8	2.75214
80.02	6.70813
80.24	5.42277
80.46	3.23699
80.68	5.18813
80.9	4.25344
81.12	12.038
81.34	7.8863
81.56	6.09132
81.78	0.348841
82	9.1414
82.22	8.12094
82.44	6.17323
82.66	3.26319
82.88	4.42577
83.1	3.52265
83.32	17.5769
83.54	12.7375
83.76	1.9685
83.98	1.03042
84.2	2.84089
84.42	6.01773
84.64	4.22385
84.86	7.35065
85.08	5.36785
85.3	8.59157
85.52	7.32635
85.74	6.26784
85.96	6.16637
86.18	4.98542
86.4	0.74302
86.62	9.49497
86.84	11.2385
87.06	3.04688
87.28	1.88099
87.5	3.81764
87.72	0.386241
87.94	3.65723
88.16	0.835049
88.38	8.9917
88.6	12.1994
88.82	5.4808
89.04	3.78621
89.26	9.15642
89.48	6.52017
89.7	4.87791
89.92	0.848604
