Measurement: Powder, Xray Data XY Processed
Mineral: Phosphosiderite
Rruff sample: R070519
Ideal chemistry: Fe^3+^PO_4_2H_2_O
Locality: Stewart mine, Pala, San Diego County, California, USA
Source: James Shigley
Description: Bluish-purple fine-grained botryoidal and tabular crystals
Diffraction sample description: Powder, using Mo radiation
Cell parameters: a: 5.298(3) b: 9.806(1) c: 8.720(2) alpha: 90 beta: 91.02(6) gamma: 90 volume: 453.0(3) crystal system: monoclinic
x	intensity
5.74	0
5.82	0.203476
5.9	7.43157
5.98	50.264
6.06	157.235
6.14	383.785
6.22	607.437
6.3	682.596
6.38	503.286
6.46	262.919
6.54	82.2951
6.62	25.1135
6.7	14.6291
6.78	0.164803
6.86	1.01728
6.94	0.238423
7.02	2.30184
7.1	0.081352
7.18	9.2867
7.26	67.9239
7.34	141.308
7.42	205.591
7.5	191.56
7.58	115.671
7.66	43.5681
7.74	3.62776
7.82	2.47477
7.9	6.12873
7.98	8.46309
8.06	95.1681
8.14	327.141
8.22	752.209
8.3	1053.06
8.38	924.529
8.46	589.378
8.54	593.357
8.62	1126.74
8.7	1866.21
8.78	2108.89
8.86	1786.17
8.94	1302.41
9.02	993.287
9.1	854.825
9.18	1319.46
9.26	2407.12
9.34	3406.78
9.42	3201.33
9.5	1917.3
9.58	778.647
9.66	298.062
9.74	209.42
9.82	316.717
9.9	536.36
9.98	646.362
10.06	523.935
10.14	370.286
10.22	280.294
10.3	215.43
10.38	131.505
10.46	43.3731
10.54	3.6186
10.62	3.78936
10.7	1.06561
10.78	3.44585
10.86	2.49802
10.94	18.6902
11.02	47.4784
11.1	147.725
11.18	397.138
11.26	758.08
11.34	953.422
11.42	734.053
11.5	335.407
11.58	85.5065
11.66	1.24468
11.74	7.76982
11.82	0.811474
11.9	2.99992
11.98	4.70167
12.06	51.4008
12.14	171.676
12.22	269.16
12.3	289.843
12.38	227.718
12.46	170.688
12.54	142.096
12.62	115.074
12.7	130.569
12.78	152.767
12.86	154.511
12.94	121.602
13.02	102.821
13.1	134.68
13.18	130.37
13.26	68.4879
13.34	29.4659
13.42	20.504
13.5	65.8107
13.58	87.8397
13.66	78.8446
13.74	72.119
13.82	74.0695
13.9	76.1078
13.98	31.0196
14.06	1.09038
14.14	5.44752
14.22	5.29008
14.3	7.8242
14.38	110.327
14.46	484.374
14.54	1287.8
14.62	2125.88
14.7	2280.45
14.78	1591.5
14.86	727.808
14.94	235.946
15.02	63.4382
15.1	16.0619
15.18	29.8843
15.26	78.1733
15.34	150.771
15.42	179.623
15.5	161.125
15.58	109.469
15.66	99.2985
15.74	230.731
15.82	583.218
15.9	1061.72
15.98	1299.31
16.06	1156.16
16.14	759.621
16.22	380.424
16.3	179.936
16.38	98.7815
16.46	135.307
16.54	206.022
16.62	260.382
16.7	211.067
16.78	122.613
16.86	9.96182
16.94	3.99922
17.02	2.52785
17.1	10.2533
17.18	7.9403
17.26	79.8253
17.34	176.234
17.42	243.96
17.5	218.737
17.58	100.198
17.66	8.18557
17.74	1.89589
17.82	5.93875
17.9	51.0374
17.98	141.939
18.06	215.561
18.14	240.633
18.22	209.339
18.3	135.62
18.38	72.2377
18.46	24.353
18.54	1.1162
18.62	17.6811
18.7	100.707
18.78	156.41
18.86	177.584
18.94	152.713
19.02	193.238
19.1	276.144
19.18	397.839
19.26	428.267
19.34	302.045
19.42	122.021
19.5	27.8375
19.58	1.91825
19.66	37.0313
19.74	85.3252
19.82	75.1392
19.9	52.7754
19.98	16.1986
20.06	19.3188
20.14	109.282
20.22	332.244
20.3	615.787
20.38	731.832
20.46	662.21
20.54	488.532
20.62	282.84
20.7	133.357
20.78	39.3629
20.86	8.75728
20.94	1.52005
21.02	6.19996
21.1	9.87761
21.18	26.3744
21.26	47.4035
21.34	29.7489
21.42	20.8185
21.5	4.41344
21.58	6.6731
21.66	6.20217
21.74	9.0388
21.82	1.26577
21.9	4.25819
21.98	5.97692
22.06	17.9603
22.14	25.2109
22.22	71.3968
22.3	107.188
22.38	143.954
22.46	187.495
22.54	225.568
22.62	230.644
22.7	178.295
22.78	92.007
22.86	11.3679
22.94	4.72764
23.02	11.7526
23.1	88.5728
23.18	144.815
23.26	140.795
23.34	77.002
23.42	16.236
23.5	2.87325
23.58	1.36885
23.66	22.728
23.74	77.2196
23.82	185.487
23.9	276.25
23.98	243.858
24.06	196.26
24.14	147.308
24.22	145.054
24.3	137.252
24.38	119.984
24.46	200.56
24.54	340.979
24.62	459.868
24.7	470.514
24.78	376.907
24.86	301.213
24.94	263.14
25.02	257.047
25.1	209.565
25.18	170.452
25.26	111.294
25.34	16.6942
25.42	8.17381
25.5	5.70121
25.58	18.0249
25.66	11.3431
25.74	23.804
25.82	32.2907
25.9	54.9119
25.98	99.0108
26.06	139.276
26.14	167.307
26.22	247.919
26.3	304.273
26.38	297.022
26.46	271.381
26.54	256.955
26.62	286.632
26.7	305.517
26.78	315.371
26.86	291.752
26.94	173.13
27.02	82.6565
27.1	15.3523
27.18	6.77913
27.26	16.4072
27.34	42.5472
27.42	62.0356
27.5	97.5956
27.58	133.79
27.66	125.742
27.74	100.526
27.82	79.1443
27.9	32.4151
27.98	3.93457
28.06	0.094705
28.14	1.8967
28.22	19.343
28.3	64.9164
28.38	78.9947
28.46	105.859
28.54	98.0092
28.62	71.7158
28.7	27.979
28.78	16.1492
28.86	3.39441
28.94	5.55306
29.02	3.61187
29.1	6.81979
29.18	7.55893
29.26	53.8364
29.34	69.579
29.42	145.902
29.5	198.255
29.58	238.635
29.66	257.627
29.74	270.472
29.82	254.607
29.9	239.93
29.98	172.14
30.06	127.114
30.14	75.4232
30.22	36.5332
30.3	10.1773
30.38	14.4027
30.46	1.2665
30.54	3.62626
30.62	36.301
30.7	26.169
30.78	51.9612
30.86	85.1989
30.94	88.6475
31.02	103.233
31.1	82.7691
31.18	107.949
31.26	113.109
31.34	66.4908
31.42	63.202
31.5	20.5816
31.58	2.55416
31.66	2.92765
31.74	1.04318
31.82	0.594202
31.9	16.02
31.98	5.27469
32.06	1.97307
32.14	4.93791
32.22	7.0489
32.3	52.4449
32.38	123.728
32.46	152.375
32.54	175.537
32.62	219.248
32.7	227.965
32.78	206.776
32.86	183.755
32.94	146.945
33.02	134.309
33.1	93.498
33.18	94.6519
33.26	122.5
33.34	79.2179
33.42	76.2313
33.5	88.2294
33.58	104.341
33.66	75.1656
33.74	43.9308
33.82	36.0526
33.9	24.3677
33.98	0.778261
34.06	0.679307
34.14	12.32
34.22	11.1501
34.3	3.85481
34.38	8.59793
34.46	33.9984
34.54	46.1133
34.62	50.9411
34.7	0.259877
34.78	12.0371
34.86	1.3426
34.94	8.57826
35.02	26.4456
35.1	14.4428
35.18	13.6964
35.26	6.79201
35.34	32.7141
35.42	26.1541
35.5	29.8704
35.58	4.93218
35.66	0
