Measurement: Powder, Xray Data XY Processed
Mineral: Phosphosiderite
Rruff sample: R050459
Ideal chemistry: Fe^3+^PO_4_2H_2_O
Locality: Bull Moose mine, Custer, South Dakota, USA
Source: University of Arizona Mineral Museum
Description: Pale lavendar tabular crystals
Diffraction sample description: Single crystal, powder profile is calculated
Measured chemistry: (Fe^3+^_0.99_Al_0.01_)_Σ=1_P_1.00_O_4_·2H_2_O
Cell parameters: a: 5.3242(9) b: 9.790(1) c: 8.707(1) alpha: 90 beta: 90.585(9) gamma: 90 volume: 453.8(1) crystal system: monoclinic
x	intensity
5	0
5.22	0
5.44	0
5.66	0
5.88	0
6.1	0
6.32	0
6.54	0
6.76	0
6.98	0
7.2	0
7.42	0
7.64	0
7.86	0
8.08	0
8.3	0
8.52	0
8.74	0
8.96	0
9.18	0
9.4	0
9.62	0
9.84	0
10.06	0
10.28	0
10.5	0
10.72	0
10.94	0
11.16	0
11.38	0
11.6	0
11.82	0
12.04	0
12.26	0
12.48	0
12.7	0
12.92	0
13.14	0
13.36	0
13.58	27.176
13.8	0
14.02	0
14.24	0
14.46	0
14.68	0
14.9	0
15.12	0
15.34	0
15.56	0
15.78	0
16	0
16.22	0
16.44	0
16.66	0
16.88	0
17.1	0
17.32	0
17.54	0
17.76	0
17.98	0.001
18.2	4.582
18.42	0
18.64	0
18.86	0.188
19.08	1.298
19.3	0
19.52	6.361
19.74	0.005
19.96	0
20.18	0
20.4	96.619
20.62	0
20.84	4.749
21.06	0
21.28	0
21.5	0.004
21.72	5.165
21.94	0
22.16	0
22.38	1.815
22.6	0
22.82	0
23.04	0
23.26	0
23.48	0
23.7	0
23.92	0
24.14	0
24.36	0
24.58	0.078
24.8	5.268
25.02	0
25.24	0
25.46	0
25.68	0
25.9	0
26.12	0
26.34	0
26.56	0.001
26.78	5.08
27	0.001
27.22	0
27.44	2.655
27.66	0
27.88	2.149
28.1	1.437
28.32	0
28.54	0
28.76	0
28.98	0
29.2	1.033
29.42	0
29.64	0
29.86	0
30.08	0
30.3	0
30.52	0
30.74	0
30.96	0
31.18	0
31.4	0
31.62	0
31.84	0
32.06	2.236
32.28	10.752
32.5	0.087
32.72	0
32.94	0
33.16	0
33.38	0
33.6	1.603
33.82	2.272
34.04	0.004
34.26	0.091
34.48	0.01
34.7	0
34.92	18.297
35.14	4.037
35.36	5.508
35.58	0
35.8	0
36.02	0.887
36.24	2.843
36.46	0.095
36.68	3.106
36.9	0.001
37.12	0
37.34	0
37.56	0
37.78	0
38	0
38.22	1.571
38.44	6.199
38.66	0.028
38.88	0
39.1	0
39.32	0
39.54	0.824
39.76	1.651
39.98	5.316
40.2	0.004
40.42	0.007
40.64	1.841
40.86	0.019
41.08	0.084
41.3	0
41.52	0.367
41.74	1.454
41.96	2.123
42.18	0
42.4	0.136
42.62	6.267
42.84	0
43.06	0
43.28	0
43.5	0
43.72	2.713
43.94	0.078
44.16	0.292
44.38	0
44.6	0
44.82	0
45.04	14.515
45.26	3.878
45.48	0.053
45.7	4.357
45.92	0.337
46.14	0.512
46.36	0
46.58	0
46.8	0
47.02	0.303
47.24	0
47.46	1.285
47.68	1.401
47.9	0
48.12	0
48.34	0
48.56	0.009
48.78	0.335
49	1.481
49.22	0.026
49.44	0.003
49.66	0.805
49.88	0.718
50.1	0
50.32	3.196
50.54	0.049
50.76	1.383
50.98	0.046
51.2	0.103
51.42	0
51.64	1.305
51.86	8.041
52.08	0.172
52.3	0.024
52.52	0.438
52.74	0.863
52.96	0.003
53.18	0.047
53.4	6.055
53.62	1.248
53.84	0.004
54.06	0.354
54.28	2.634
54.5	1.083
54.72	0.037
54.94	2.94
55.16	4.764
55.38	0.607
55.6	0.784
55.82	1.343
56.04	0.131
56.26	0.809
56.48	3.02
56.7	0.849
56.92	0.029
57.14	0.04
57.36	0.059
57.58	1.331
57.8	0.018
58.02	0.055
58.24	0.49
58.46	5.759
58.68	2.123
58.9	0.134
59.12	0.55
59.34	0.895
59.56	1.814
59.78	0.283
60	0
60.22	4.886
60.44	0.517
60.66	5.566
60.88	0.319
61.1	0
61.32	0
61.54	0.04
61.76	0.252
61.98	0.001
62.2	0.274
62.42	1.704
62.64	0.701
62.86	0.486
63.08	0.831
63.3	0.333
63.52	0.044
63.74	0.003
63.96	0.009
64.18	0.384
64.4	0.269
64.62	0.192
64.84	2.304
65.06	0.888
65.28	0
65.5	0.014
65.72	0.18
65.94	0.112
66.16	0.002
66.38	0.009
66.6	1.646
66.82	0.99
67.04	0.001
67.26	3.864
67.48	1.987
67.7	0.445
67.92	0.272
68.14	2.04
68.36	0.931
68.58	0.419
68.8	0.076
69.02	0.07
69.24	0.144
69.46	0.946
69.68	0.293
69.9	0.022
70.12	0.02
70.34	0.139
70.56	0.183
70.78	0.746
71	0.368
71.22	0.48
71.44	2.158
71.66	1.386
71.88	0.015
72.1	0
72.32	0.148
72.54	0.232
72.76	0.121
72.98	0.004
73.2	0.685
73.42	0.557
73.64	0.122
73.86	0.024
74.08	0.044
74.3	0.081
74.52	0.859
74.74	1.676
74.96	1.345
75.18	0.593
75.4	1.293
75.62	2.891
75.84	1.156
76.06	0.001
76.28	1.607
76.5	0.875
76.72	0.002
76.94	0.66
77.16	0.467
77.38	0.064
77.6	0.032
77.82	1.782
78.04	1.276
78.26	0.125
78.48	0.018
78.7	0.018
78.92	0.312
79.14	0.206
79.36	0.092
79.58	0.024
79.8	0.747
80.02	0.43
80.24	0.213
80.46	0.591
80.68	0.442
80.9	0.237
81.12	0.004
81.34	0.725
81.56	0.601
81.78	0.698
82	0.278
82.22	0.05
82.44	0.138
82.66	0.147
82.88	1.353
83.1	0.397
83.32	0.021
83.54	0.044
83.76	0.006
83.98	0.072
84.2	0.035
84.42	0.046
84.64	0.046
84.86	0.092
85.08	0.024
85.3	0.371
85.52	0.123
85.74	0.007
85.96	0.133
86.18	0.129
86.4	0.006
86.62	0.518
86.84	0.167
87.06	0.012
87.28	0.003
87.5	0.001
87.72	0.085
87.94	0.03
88.16	0.166
88.38	0.026
88.6	0.049
88.82	1.054
89.04	0.256
89.26	0.015
89.48	0.079
89.7	0.009
89.92	0.601
