Measurement: Powder, Xray Data XY Processed
Mineral: Planerite
Rruff sample: R080123
Ideal chemistry: Al_6_(PO_4_)_2_(PO_3_OH)_2_(OH)_8_4H_2_O
Locality: Bruguers, Gav√°, Barcelona, Catalonia, Spain
Source: Joan Abella i Creus
Description: Light green, microcrystalline fragments
Diffraction sample description: Powder, using Mo radiation
Cell parameters: a: 7.528 b: 7.713 c: 10.087 alpha: 69.934 beta: 68.847 gamma: 64.544 volume: 480.75 crystal system: triclinic
x	intensity
5.45	0
5.57	2.01815
5.69	89.6643
5.81	432.694
5.93	653.796
6.05	318.433
6.17	102.679
6.29	329.952
6.41	938.225
6.53	978.533
6.65	484.747
6.77	277.151
6.89	121.349
7.01	44.0944
7.13	17.1589
7.25	0.011882
7.37	1.39272
7.49	3.47792
7.61	1.74247
7.73	3.64043
7.85	8.4452
7.97	65.9343
8.09	106.135
8.21	175.148
8.33	339.794
8.45	571.871
8.57	430.232
8.69	210.736
8.81	188.911
8.93	90.9222
9.05	37.3131
9.17	5.94007
9.29	19.2563
9.41	41.0127
9.53	43.5442
9.65	13.7382
9.77	2.35891
9.89	1.99822
10.01	4.68637
10.13	9.99398
10.25	3.1577
10.37	11.3488
10.49	20.4063
10.61	208.414
10.73	794.264
10.85	1584.63
10.97	1415.02
11.09	543.177
11.21	195.979
11.33	204.446
11.45	310.524
11.57	524.866
11.69	799.462
11.81	868.37
11.93	659.783
12.05	475.053
12.17	503.557
12.29	625.938
12.41	554.241
12.53	398.681
12.65	202.727
12.77	115.175
12.89	192.271
13.01	517.678
13.13	501.25
13.25	252.114
13.37	327.568
13.49	324.505
13.61	366.021
13.73	547.891
13.85	867.318
13.97	961.969
14.09	782.471
14.21	468.805
14.33	212.209
14.45	46.2805
14.57	17.8683
14.69	10.0293
14.81	11.219
14.93	0.758459
15.05	4.81104
15.17	1.11479
15.29	4.18343
15.41	0.064066
15.53	5.293
15.65	13.9933
15.77	76.522
15.89	242.64
16.01	332.174
16.13	317.104
16.25	226.045
16.37	127.771
16.49	130.201
16.61	129.741
16.73	133.638
16.85	149.899
16.97	200.026
17.09	245.478
17.21	277.118
17.33	250.511
17.45	250.69
17.57	295.076
17.69	322.258
17.81	256.095
17.93	191.268
18.05	151.08
18.17	103.892
18.29	11.3779
18.41	3.73559
18.53	3.52481
18.65	11.4972
18.77	1.3178
18.89	0.720666
19.01	11.8144
19.13	2.98326
19.25	3.36424
19.37	1.70495
19.49	39.62
19.61	134.475
19.73	194.813
19.85	182.37
19.97	141.314
20.09	152.804
20.21	210.701
20.33	213.814
20.45	191.209
20.57	145.08
20.69	50.9579
20.81	26.5624
20.93	4.31489
21.05	15.7462
21.17	68.7321
21.29	142.941
21.41	234.344
21.53	235.874
21.65	221.047
21.77	213.49
21.89	213.017
22.01	243.558
22.13	211.429
22.25	131.387
22.37	45.0818
22.49	33.95
22.61	66.7234
22.73	80.7427
22.85	76.5052
22.97	11.9757
23.09	4.50502
23.21	1.56296
23.33	7.43517
23.45	0.863899
23.57	11.6824
23.69	61.8965
23.81	41.6461
23.93	0.308862
24.05	0.284954
24.17	1.28869
24.29	13.7355
24.41	5.9207
24.53	2.37547
24.65	0.476655
24.77	4.29155
24.89	0.117167
25.01	15.141
25.13	1.1449
25.25	33.6158
25.37	49.6288
25.49	7.37805
25.61	7.65437
25.73	22.4099
25.85	13.0646
25.97	52.0803
26.09	90.1201
26.21	76.2024
26.33	88.6531
26.45	67.3924
26.57	81.5585
26.69	85.4146
26.81	93.8687
26.93	115.111
27.05	144.429
27.17	217.388
27.29	290.531
27.41	200.49
27.53	122.128
27.65	85.9388
27.77	55.43
27.89	57.5151
28.01	36.884
28.13	47.7287
28.25	32.1918
28.37	2.17149
28.49	21.4891
28.61	7.89046
28.73	44.7621
28.85	44.0553
28.97	31.019
29.09	2.95406
29.21	4.81785
29.33	7.69881
29.45	47.7844
29.57	53.8333
29.69	57.9238
29.81	43.672
29.93	44.1739
30.05	56.3584
30.17	86.8151
30.29	73.7132
30.41	43.9396
30.53	34.1888
30.65	21.1586
30.77	10.3626
30.89	15.7309
31.01	14.3104
31.13	15.3492
31.25	3.41437
31.37	0.495145
31.49	5.05763
31.61	1.73733
31.73	1.7308
31.85	1.41369
31.97	17.088
32.09	78.0186
32.21	128.938
32.33	161.21
32.45	132.881
32.57	184.687
32.69	153.511
32.81	127.807
32.93	91.4177
33.05	47.3548
33.17	51.1017
33.29	48.435
33.41	71.8124
33.53	110.01
33.65	119.92
33.77	110.686
33.89	77.5894
34.01	68.5739
34.13	43.3637
34.25	31.1137
34.37	23.0184
34.49	18.6663
34.61	5.61543
34.73	0.98266
34.85	1.03069
34.97	14.4118
35.09	18.788
35.21	9.51328
35.33	0.540859
35.45	1.46006
35.57	0.573371
35.69	1.23394
35.81	3.3551
35.93	1.61054
36.05	8.60151
36.17	20.4919
36.29	8.22651
36.41	16.5656
36.53	24.2486
36.65	33.4725
36.77	34.4688
36.89	39.0394
37.01	40.7079
37.13	69.0151
37.25	38.6435
37.37	32.2443
37.49	29.679
37.61	13.2431
37.73	36.385
37.85	9.80449
37.97	6.34125
38.09	22.7187
38.21	11.6808
38.33	18.709
38.45	16.8086
38.57	1.06329
38.69	12.3575
38.81	3.88903
38.93	15.9915
39.05	4.74863
39.17	1.34649
39.29	10.4485
39.41	15.6975
39.53	5.22604
39.65	19.7758
39.77	0.362604
39.89	18.6992
40.01	25.1498
40.13	32.1756
40.25	19.7921
40.37	25.0806
40.49	17.1332
40.61	10.4341
40.73	34.2827
40.85	34.4813
40.97	29.3818
41.09	10.6324
41.21	12.2034
41.33	24.895
41.45	1.45335
41.57	15.81
41.69	3.21583
41.81	2.61756
41.93	22.1916
42.05	10.5385
42.17	13.072
42.29	0.315686
42.41	20.4229
42.53	14.6387
42.65	10.3014
42.77	25.9363
42.89	26.9543
43.01	50.1145
43.13	26.7751
43.25	21.1923
43.37	38.7161
43.49	17.126
43.61	11.4148
43.73	8.61758
43.85	27.0342
43.97	18.5367
44.09	12.1868
44.21	3.83233
44.33	16.718
44.45	1.80391
44.57	18.0129
44.69	16.5677
44.81	15.65
44.93	6.82145
45.05	20.4961
45.17	11.8675
45.29	2.74631
45.41	32.5622
45.53	5.89041
45.65	17.0453
45.77	40.5063
45.89	33.9693
46.01	30.7695
46.13	35.9976
46.25	13.6432
46.37	17.9456
46.49	37.3121
46.61	34.2347
46.73	33.6366
46.85	13.5067
46.97	6.57012
47.09	21.6268
47.21	0.087993
47.33	1.76658
47.45	17.7556
47.57	12.2323
