Measurement: Powder, Xray Data XY Processed
Mineral: Pollucite
Rruff sample: R050344
Ideal chemistry: Cs(Si_2_Al)O_6_nH_2_O
Locality: Konar Province, Afghanistan
Source: George Rossman
Description: Colorless fragment
Diffraction sample description: Powder
Measured chemistry: (Cs_0.78_Na_0.21_Rb_0.01_)_Σ=1_(Si_2.13_Al_0.87_)_Σ=3_O_6_·H_2_O
Cell parameters: a: 13.6805(1) b: 13.6805(1) c: 13.6805(1) alpha: 90. beta: 90. gamma: 90. volume: 2560.40(8) crystal system: cubic
x	intensity
5	0
5.22	16.1611
5.44	6.69824
5.66	17.0774
5.88	22.7413
6.1	8.07419
6.32	2.95534
6.54	3.21494
6.76	14.7188
6.98	16.3227
7.2	8.70913
7.42	13.1003
7.64	9.50896
7.86	12.598
8.08	0.841393
8.3	9.08915
8.52	1.40829
8.74	2.15286
8.96	6.32771
9.18	4.53503
9.4	0.655101
9.62	6.07974
9.84	5.21563
10.06	8.14041
10.28	5.18718
10.5	5.43966
10.72	1.59418
10.94	4.44346
11.16	7.45342
11.38	13.6837
11.6	6.6663
11.82	0.823588
12.04	3.57707
12.26	10.6677
12.48	6.69513
12.7	5.90288
12.92	3.87952
13.14	5.03331
13.36	14.0447
13.58	2.93094
13.8	15.9199
14.02	9.80489
14.24	9.68753
14.46	10.6982
14.68	2.7942
14.9	2.79401
15.12	10.5797
15.34	3.55597
15.56	6.50067
15.78	9.57235
16	11.9702
16.22	5.88559
16.44	5.89765
16.66	5.82883
16.88	6.83365
17.1	5.58864
17.32	0.328424
17.54	6.6258
17.76	8.42549
17.98	10.4175
18.2	9.43586
18.42	16.9302
18.64	2.8607
18.86	7.79406
19.08	3.70272
19.3	4.65605
19.52	4.81202
19.74	10.0084
19.96	3.75367
20.18	10.9403
20.4	10.9056
20.62	0.938935
20.84	1.00735
21.06	4.22919
21.28	1.53543
21.5	3.72663
21.72	1.89229
21.94	11.5813
22.16	6.68779
22.38	7.62409
22.6	3.55845
22.82	4.82407
23.04	12.6526
23.26	9.45646
23.48	8.044
23.7	6.94517
23.92	1.71555
24.14	9.19116
24.36	375.784
24.58	5.29437
24.8	1.15394
25.02	0.223483
25.24	11.5246
25.46	10.2914
25.68	4.35501
25.9	16.3816
26.12	556.184
26.34	6.50804
26.56	9.82628
26.78	5.40934
27	1.81453
27.22	5.29592
27.44	7.83815
27.66	9.47474
27.88	16.1288
28.1	6.19419
28.32	13.4669
28.54	2.43651
28.76	2.18348
28.98	2.63404
29.2	21.126
29.42	4.00249
29.64	4.82606
29.86	2.62743
30.08	6.3305
30.3	8.9851
30.52	26.2782
30.74	246.557
30.96	10.6286
31.18	8.96248
31.4	5.8265
31.62	6.2511
31.84	7.65752
32.06	16.0797
32.28	7.25595
32.5	1.38205
32.72	5.52874
32.94	8.41252
33.16	2.40514
33.38	22.4098
33.6	11.1706
33.82	1.46731
34.04	4.33321
34.26	2.73626
34.48	1.14585
34.7	4.31645
34.92	7.3112
35.14	1.2644
35.36	10.1467
35.58	0.081767
35.8	1.98066
36.02	23.9862
36.24	5.67282
36.46	3.73764
36.68	4.85069
36.9	0.253023
37.12	33.878
37.34	33.0482
37.56	3.20989
37.78	2.17783
38	7.21391
38.22	2.57946
38.44	2.72395
38.66	3.72539
38.88	6.76618
39.1	6.57627
39.32	1.54924
39.54	12.1943
39.76	0.990642
39.98	5.84022
40.2	10.9586
40.42	3.088
40.64	87.7537
40.86	6.65808
41.08	6.91059
41.3	3.82901
41.52	2.79103
41.74	10.2923
41.96	6.49619
42.18	5.65591
42.4	5.84581
42.62	5.09562
42.84	8.95548
43.06	7.10608
43.28	3.47741
43.5	6.33074
43.72	8.3236
43.94	13.9663
44.16	11.2689
44.38	1.27426
44.6	1.24081
44.82	7.77132
45.04	22.7318
45.26	10.1024
45.48	2.83304
45.7	9.83324
45.92	11.739
46.14	8.72035
46.36	1.85464
46.58	7.52972
46.8	0.665605
47.02	4.19195
47.24	4.3088
47.46	13.4217
47.68	2.89428
47.9	6.65041
48.12	5.47938
48.34	1.42422
48.56	3.44116
48.78	9.28289
49	21.4231
49.22	11.4869
49.44	9.67503
49.66	6.69057
49.88	5.55465
50.1	1.69944
50.32	7.82568
50.54	1.89432
50.76	4.30194
50.98	3.47439
51.2	0.903571
51.42	4.73367
51.64	0.283438
51.86	1.42055
52.08	4.47432
52.3	0.587773
52.52	8.30907
52.74	47.2414
52.96	6.13312
53.18	0.167255
53.4	8.89716
53.62	38.8319
53.84	3.09357
54.06	5.41659
54.28	3.59102
54.5	28.6494
54.72	5.88875
54.94	6.23785
55.16	11.3869
55.38	7.5056
55.6	8.70405
55.82	4.04069
56.04	1.84698
56.26	29.604
56.48	3.61013
56.7	5.67751
56.92	4.69401
57.14	9.63596
57.36	0.686122
57.58	1.9057
57.8	2.97609
58.02	15.8374
58.24	4.62605
58.46	5.72939
58.68	2.7376
58.9	7.64424
59.12	9.89528
59.34	1.9088
59.56	4.84148
59.78	2.78516
60	2.7409
60.22	0.619889
60.44	9.99137
60.66	12.1309
60.88	11.2503
61.1	7.29902
61.32	3.34585
61.54	1.83041
61.76	11.195
61.98	3.2089
62.2	5.21235
62.42	3.42804
62.64	1.23502
62.86	2.23087
63.08	10.1875
63.3	5.15955
63.52	2.21781
63.74	8.24066
63.96	3.25347
64.18	4.35815
64.4	0.584136
64.62	11.8728
64.84	7.53884
65.06	0.429179
65.28	7.25741
65.5	1.19362
65.72	2.22867
65.94	11.1337
66.16	10.1429
66.38	18.1882
66.6	2.14045
66.82	9.04102
67.04	9.7193
67.26	0.914681
67.48	7.96451
67.7	7.00793
67.92	2.96061
68.14	1.824
68.36	0.144518
68.58	18.8098
68.8	3.70583
69.02	1.7507
69.24	13.0106
69.46	13.2392
69.68	6.23708
69.9	2.3168
70.12	15.3866
70.34	3.49736
70.56	2.67527
70.78	3.80682
71	2.89907
71.22	0.958141
71.44	6.89693
71.66	0.547469
71.88	1.51035
72.1	0.651573
72.32	8.63039
72.54	14.6229
72.76	4.63467
72.98	3.52577
73.2	5.44307
73.42	5.5522
73.64	2.60102
73.86	3.68395
74.08	5.64804
74.3	6.63844
74.52	0.68143
74.74	5.4234
74.96	3.54015
75.18	7.5913
75.4	1.86853
75.62	2.87888
75.84	1.73393
76.06	2.69
76.28	6.64405
76.5	1.82615
76.72	7.80722
76.94	3.76885
77.16	7.01338
77.38	6.8772
77.6	11.8208
77.82	10.5927
78.04	0.362178
78.26	3.73997
78.48	20.7605
78.7	23.8857
78.92	1.84569
79.14	3.02121
79.36	3.10227
79.58	3.10827
79.8	1.14118
80.02	6.1421
80.24	8.11925
80.46	7.11303
80.68	2.08717
80.9	1.12157
81.12	3.91651
81.34	14.0798
81.56	5.1665
81.78	0.023301
82	7.9123
82.22	1.08721
82.44	3.34048
82.66	6.47827
82.88	8.60122
83.1	8.50439
83.32	4.53808
83.54	2.73764
83.76	4.56349
83.98	2.34839
84.2	3.26488
84.42	1.37525
84.64	4.39061
84.86	6.1389
85.08	13.1213
85.3	10.0077
85.52	0.05887
85.74	5.84172
85.96	9.80579
86.18	1.72268
86.4	0.288522
86.62	1.23542
86.84	4.68848
87.06	5.71852
87.28	13.8337
87.5	7.93733
87.72	5.12244
87.94	0.305302
88.16	2.56551
88.38	3.82112
88.6	5.17775
88.82	2.55385
89.04	3.91754
89.26	2.97928
89.48	2.40646
89.7	3.73144
89.92	3.09951
