Measurement: Powder, Xray Data XY Processed
Mineral: Pollucite
Rruff sample: R050345
Ideal chemistry: Cs(Si_2_Al)O_6_nH_2_O
Locality: Bernic Lake, Manitoba, Canada
Source: California Institute of Technology
Description: Colorless to white fragment
Diffraction sample description: Powder
Measured chemistry: (Cs_0.79_Na_0.19_Rb_0.02_)_Σ=1_(Si_2.10_Al_0.90_)_Σ=3_O_6_·H_2_O
Cell parameters: a: 13.6792(2) b: 13.6792(2) c: 13.6792(2) alpha: 90. beta: 90. gamma: 90. volume: 2559.7(1) crystal system: cubic
x	intensity
5	0
5.22	6.83975
5.44	12.8824
5.66	12.7623
5.88	19.3835
6.1	11.5784
6.32	0.018152
6.54	2.3044
6.76	4.0419
6.98	6.59856
7.2	5.06209
7.42	3.61632
7.64	7.11287
7.86	3.71574
8.08	4.69756
8.3	7.30732
8.52	8.67952
8.74	5.94183
8.96	3.38388
9.18	5.37435
9.4	6.7014
9.62	2.93701
9.84	0.949683
10.06	2.11008
10.28	6.07897
10.5	6.11335
10.72	9.87978
10.94	5.97254
11.16	4.86794
11.38	9.76485
11.6	6.72878
11.82	4.53246
12.04	1.47589
12.26	0.157865
12.48	7.04958
12.7	1.11295
12.92	9.45512
13.14	8.55304
13.36	2.61452
13.58	6.52314
13.8	0.584909
14.02	6.51549
14.24	1.83834
14.46	5.79711
14.68	7.4044
14.9	6.2396
15.12	5.17981
15.34	7.02625
15.56	8.07128
15.78	15.9052
16	5.84394
16.22	7.7305
16.44	6.08622
16.66	3.76033
16.88	4.03724
17.1	2.31169
17.32	7.3537
17.54	2.47367
17.76	7.31369
17.98	15.668
18.2	4.95912
18.42	19.97
18.64	4.20016
18.86	7.8327
19.08	0.725492
19.3	1.46189
19.52	3.10826
19.74	0.03316
19.96	11.7334
20.18	7.47919
20.4	6.20017
20.62	12.8119
20.84	7.69984
21.06	4.31295
21.28	11.4137
21.5	6.64
21.72	5.76249
21.94	7.80198
22.16	2.8569
22.38	12.8732
22.6	5.75181
22.82	10.6874
23.04	0.598658
23.26	9.43539
23.48	2.25302
23.7	12.2328
23.92	6.2242
24.14	11.1375
24.36	334.754
24.58	12.3443
24.8	0.974685
25.02	4.65088
25.24	6.1607
25.46	1.79466
25.68	9.46379
25.9	48.2592
26.12	514.036
26.34	12.6458
26.56	8.48488
26.78	27.5333
27	5.77636
27.22	4.90273
27.44	1.80541
27.66	15.8205
27.88	9.66849
28.1	11.0496
28.32	14.3414
28.54	10.2635
28.76	5.38285
28.98	1.45779
29.2	18.386
29.42	18.2966
29.64	4.15172
29.86	5.67355
30.08	3.05658
30.3	4.76244
30.52	14.9814
30.74	344.098
30.96	9.04642
31.18	6.02911
31.4	6.35045
31.62	3.96211
31.84	1.43531
32.06	25.7964
32.28	8.08658
32.5	5.24577
32.72	0.286855
32.94	10.3355
33.16	7.61929
33.38	27.8807
33.6	6.26078
33.82	11.1677
34.04	3.98689
34.26	3.19052
34.48	3.32077
34.7	3.45514
34.92	0.381845
35.14	1.30901
35.36	9.30691
35.58	5.1727
35.8	2.03711
36.02	15.6699
36.24	10.4366
36.46	6.26702
36.68	13.2893
36.9	8.12941
37.12	52.9922
37.34	36.2212
37.56	4.2884
37.78	3.40095
38	7.73679
38.22	5.0156
38.44	12.219
38.66	5.61713
38.88	7.59227
39.1	12.6517
39.32	4.7346
39.54	5.76678
39.76	1.59801
39.98	14.6282
40.2	6.67846
40.42	5.55307
40.64	93.2794
40.86	18.3094
41.08	4.1054
41.3	1.68201
41.52	0.703229
41.74	5.33606
41.96	6.48127
42.18	1.6599
42.4	5.67263
42.62	7.41257
42.84	6.32188
43.06	6.42902
43.28	2.51139
43.5	1.47848
43.72	2.35142
43.94	3.14208
44.16	2.31869
44.38	7.12029
44.6	7.21221
44.82	7.22695
45.04	33.2311
45.26	6.36036
45.48	3.2749
45.7	3.39858
45.92	14.4811
46.14	10.4828
46.36	2.57618
46.58	1.60918
46.8	6.65632
47.02	1.49011
47.24	4.2175
47.46	4.10632
47.68	10.6243
47.9	8.34693
48.12	19.7502
48.34	4.37388
48.56	0.339149
48.78	14.1123
49	50.7007
49.22	15.5849
49.44	5.57663
49.66	3.92436
49.88	5.15827
50.1	2.61197
50.32	13.1745
50.54	2.06409
50.76	8.60609
50.98	3.72634
51.2	2.95736
51.42	3.08636
51.64	6.15306
51.86	5.11114
52.08	4.84889
52.3	6.94249
52.52	7.6171
52.74	46.0853
52.96	22.8238
53.18	7.85119
53.4	2.76
53.62	22.7062
53.84	6.8297
54.06	4.05663
54.28	4.18005
54.5	14.3754
54.72	5.73069
54.94	9.18453
55.16	7.3436
55.38	6.0493
55.6	7.36566
55.82	6.64715
56.04	0.86357
56.26	30.8812
56.48	13.0344
56.7	7.22639
56.92	3.252
57.14	9.80282
57.36	4.79502
57.58	5.00282
57.8	2.03727
58.02	13.857
58.24	7.69329
58.46	6.51781
58.68	5.39215
58.9	8.05517
59.12	9.03223
59.34	2.88872
59.56	10.7755
59.78	13.453
60	22.2417
60.22	5.37287
60.44	17.3777
60.66	20.5667
60.88	14.6737
61.1	0.079623
61.32	1.03279
61.54	0.040486
61.76	7.23609
61.98	11.3125
62.2	3.38515
62.42	6.51197
62.64	5.25046
62.86	7.25738
63.08	15.3493
63.3	5.44485
63.52	0.607735
63.74	3.7068
63.96	6.61564
64.18	6.97086
64.4	2.35812
64.62	13.5189
64.84	4.44927
65.06	7.45956
65.28	2.46969
65.5	9.329
65.72	5.24565
65.94	8.06976
66.16	15.7699
66.38	20.1547
66.6	0.831073
66.82	4.46995
67.04	7.22743
67.26	13.1845
67.48	0.09573
67.7	9.02843
67.92	5.10929
68.14	4.00374
68.36	10.0189
68.58	15.9047
68.8	4.6016
69.02	1.7678
69.24	6.94395
69.46	11.3845
69.68	12.5764
69.9	3.8507
70.12	0.895664
70.34	6.03274
70.56	4.34267
70.78	2.43066
71	5.47459
71.22	3.4796
71.44	4.19507
71.66	0.974027
71.88	0.054753
72.1	2.99436
72.32	10.8506
72.54	21.6454
72.76	3.51084
72.98	5.29038
73.2	3.31762
73.42	4.42946
73.64	2.42204
73.86	3.4462
74.08	3.43037
74.3	7.54154
74.52	8.56518
74.74	0.371411
74.96	2.80866
75.18	8.11223
75.4	15.5023
75.62	10.6407
75.84	6.86822
76.06	14.1772
76.28	6.28199
76.5	3.37388
76.72	7.38571
76.94	5.2796
77.16	5.23923
77.38	9.1268
77.6	5.90585
77.82	4.54754
78.04	3.3365
78.26	7.28807
78.48	14.4332
78.7	13.416
78.92	2.30404
79.14	8.33605
79.36	2.55423
79.58	3.53138
79.8	4.73403
80.02	6.81148
80.24	3.80856
80.46	3.80904
80.68	4.53261
80.9	6.33724
81.12	4.42135
81.34	15.6094
81.56	10.6228
81.78	4.8134
82	3.82386
82.22	1.75023
82.44	0.929256
82.66	9.00206
82.88	7.06072
83.1	9.09148
83.32	0.234553
83.54	4.16395
83.76	5.15323
83.98	0.035674
84.2	1.85382
84.42	2.86246
84.64	1.92385
84.86	1.0153
85.08	7.03859
85.3	11.138
85.52	0.1351
85.74	4.11972
85.96	2.08202
86.18	2.82006
86.4	3.76462
86.62	0.71609
86.84	6.68635
87.06	8.59563
87.28	12.4693
87.5	11.628
87.72	4.68511
87.94	3.90172
88.16	3.94676
88.38	1.22897
88.6	3.46019
88.82	5.71553
89.04	1.09869
89.26	5.38859
89.48	3.26218
89.7	3.30328
89.92	3.45763
