Measurement: Powder, Xray Data XY Processed
Mineral: Polydymite
Rruff sample: R050609
Ideal chemistry: Ni^2+^Ni^3+^_2_S^2-^_4_
Locality: Dry Nickel mine, Bindura, South Rhodesia, Rhodesia
Source: University of Arizona Mineral Museum
Description: Reddish-bronze tarnished metallic fragment associated with green clinochlore and white actinolite
Diffraction sample description: Powder
Measured chemistry: (Ni_0.85_Fe_0.15_)Ni_2.00_S_4.00_
Cell parameters: a: 9.4788(2) b: 9.4788(2) c: 9.4788(2) alpha: 90. beta: 90. gamma: 90. volume: 851.65(6) crystal system: cubic
x	intensity
5	0
5.22	2.311
5.44	27.334
5.66	13.448
5.88	6.871
6.1	13.673
6.32	16.975
6.54	3.684
6.76	24.604
6.98	18.926
7.2	4.775
7.42	6.307
7.64	19.238
7.86	7.271
8.08	24.551
8.3	4.097
8.52	25.609
8.74	5.494
8.96	27.726
9.18	16.616
9.4	0.922
9.62	10.771
9.84	16.003
10.06	18.078
10.28	8.233
10.5	30.114
10.72	12.639
10.94	16.887
11.16	2.421
11.38	3.45
11.6	12.282
11.82	15.154
12.04	28.331
12.26	17.74
12.48	27.448
12.7	9.446
12.92	1.2
13.14	4.599
13.36	3.966
13.58	4.625
13.8	2.474
14.02	9.258
14.24	23.799
14.46	15.459
14.68	2.599
14.9	14.542
15.12	7.557
15.34	26.761
15.56	9.41
15.78	15.734
16	18.949
16.22	111.978
16.44	31.698
16.66	14.532
16.88	10.972
17.1	19.991
17.32	23.563
17.54	4.574
17.76	26.371
17.98	2.055
18.2	18.337
18.42	15.851
18.64	15.398
18.86	14.42
19.08	16.842
19.3	1.063
19.52	12.66
19.74	4.763
19.96	2.151
20.18	15.424
20.4	15.672
20.62	18.609
20.84	12.635
21.06	10.305
21.28	3.728
21.5	26.897
21.72	21.937
21.94	21.414
22.16	21.272
22.38	19.927
22.6	0.58
22.82	16.12
23.04	31.243
23.26	19.099
23.48	18.793
23.7	16.36
23.92	6.028
24.14	4.017
24.36	16.18
24.58	7.307
24.8	24.416
25.02	8.13
25.24	29.623
25.46	0.469
25.68	2.717
25.9	9.068
26.12	25.975
26.34	40.802
26.56	135.943
26.78	45.492
27	9.599
27.22	20.115
27.44	10.548
27.66	5.654
27.88	4.945
28.1	21.969
28.32	9.513
28.54	39.589
28.76	15.064
28.98	30.977
29.2	15.26
29.42	14.35
29.64	5.681
29.86	27.147
30.08	7.204
30.3	36.03
30.52	29.322
30.74	40.711
30.96	29.713
31.18	219.472
31.4	343.759
31.62	64.914
31.84	18.213
32.06	19.42
32.28	5.75
32.5	28.679
32.72	23.297
32.94	17.535
33.16	28.38
33.38	10.938
33.6	35.363
33.82	11.911
34.04	10.992
34.26	28.363
34.48	12.511
34.7	19.95
34.92	1.318
35.14	12.345
35.36	25.235
35.58	14.457
35.8	4.661
36.02	24.02
36.24	20.103
36.46	29.208
36.68	2.948
36.9	8.793
37.12	17.262
37.34	15.992
37.56	25.278
37.78	99.122
38	295.786
38.22	83.435
38.44	25.164
38.66	18.735
38.88	9.321
39.1	2.414
39.32	7.312
39.54	13.205
39.76	8.236
39.98	23.973
40.2	6.401
40.42	17.341
40.64	21.037
40.86	4.543
41.08	1.149
41.3	22.056
41.52	11.367
41.74	6.858
41.96	17.537
42.18	22.857
42.4	7.123
42.62	28.92
42.84	10.67
43.06	9.52
43.28	27.325
43.5	24.051
43.72	16.822
43.94	20.23
44.16	4.736
44.38	5.706
44.6	22.893
44.82	2.743
45.04	18.489
45.26	17.14
45.48	11.439
45.7	3.099
45.92	15.751
46.14	0.441
46.36	35.081
46.58	2.351
46.8	35.194
47.02	24.448
47.24	19.298
47.46	14.117
47.68	20.26
47.9	29.778
48.12	2.998
48.34	7.888
48.56	24.356
48.78	25.456
49	30.961
49.22	12.9
49.44	12.514
49.66	43.879
49.88	85.454
50.1	130.25
50.32	53.107
50.54	21.199
50.76	7.361
50.98	20.081
51.2	6.336
51.42	15.25
51.64	18.885
51.86	7.601
52.08	7.727
52.3	21.894
52.52	12.697
52.74	23.029
52.96	22.661
53.18	15.185
53.4	6.509
53.62	18.988
53.84	7.395
54.06	14.988
54.28	32.064
54.5	80.911
54.72	221.624
54.94	178.61
55.16	70.917
55.38	34.759
55.6	19.236
55.82	5.802
56.04	9.264
56.26	8.169
56.48	42.234
56.7	9.685
56.92	4.7
57.14	15.487
57.36	12.38
57.58	29.765
57.8	22.181
58.02	14.547
58.24	25.011
58.46	19.65
58.68	17.09
58.9	25.95
59.12	21.549
59.34	17.169
59.56	13.451
59.78	13.328
60	7.789
60.22	4.647
60.44	11.523
60.66	32.969
60.88	10.419
61.1	2.298
61.32	15.411
61.54	10.056
61.76	20.084
61.98	41.741
62.2	13.679
62.42	15.165
62.64	16.289
62.86	18.696
63.08	12.358
63.3	40.56
63.52	20.678
63.74	27.305
63.96	16.303
64.18	24.854
64.4	33.468
64.62	44.832
64.84	22.48
65.06	15.41
65.28	6.922
65.5	22.901
65.72	12.636
65.94	31.694
66.16	12.216
66.38	17.931
66.6	13.564
66.82	14.85
67.04	13.403
67.26	18.829
67.48	7.196
67.7	16.435
67.92	5.754
68.14	13.609
68.36	41.123
68.58	63.216
68.8	41.317
69.02	8.188
69.24	24.475
69.46	21.411
69.68	23.794
69.9	27.272
70.12	7.127
70.34	16.636
70.56	12.73
70.78	11.492
71	19.506
71.22	36.587
71.44	21.253
71.66	24.997
71.88	26.88
72.1	24.482
72.32	47.972
72.54	11.255
72.76	21.975
72.98	18.034
73.2	31.755
73.42	10.538
73.64	28.775
73.86	29.479
74.08	9.237
74.3	13.251
74.52	10.703
74.74	19.285
74.96	16.371
75.18	3.968
75.4	22.615
75.62	21.175
75.84	27.242
76.06	23.056
76.28	21.764
76.5	4.865
76.72	14.445
76.94	6.664
77.16	42.39
77.38	27.183
77.6	23.335
77.82	14.689
78.04	8.137
78.26	6.807
78.48	8.559
78.7	24.477
78.92	6.161
79.14	36.802
79.36	16.554
79.58	23.813
79.8	21.326
80.02	9.264
80.24	0.598
80.46	4.093
80.68	22.634
80.9	23.227
81.12	50.454
81.34	47.241
81.56	25.157
81.78	21.808
82	12.87
82.22	6.081
82.44	30.449
82.66	1.47
82.88	13.329
83.1	26.373
83.32	4.428
83.54	9.996
83.76	31.177
83.98	5.602
84.2	15.921
84.42	27.087
84.64	21.866
84.86	19.035
85.08	48.038
85.3	14.006
85.52	20.382
85.74	14.691
85.96	3.473
86.18	22.657
86.4	14.743
86.62	6.379
86.84	13.322
87.06	24.211
87.28	4.559
87.5	35.58
87.72	25.612
87.94	26.2
88.16	25.669
88.38	25.572
88.6	28.5
88.82	11.987
89.04	26.31
89.26	1.53
89.48	28.336
89.7	20.278
89.92	16.604
