Measurement: Powder, Xray Data XY Processed
Mineral: Polylithionite
Rruff sample: R050132
Ideal chemistry: KLi_2_AlSi_4_O_10_F_2_
Locality: Brown Derby mine, Ohio City, Gunnison County, Colorado, USA
Source: Dave Bunk Minerals
Description: Purple scaly aggregate, polytype 2M1
Diffraction sample description: Powder, refined as 2M1 polytype
Measured chemistry: (K_0.90_Rb_0.10_)(Li_0.62_Al_0.38_)_3_(Si_0.93_Al_0.07_)_4_O_10_(F_0.69_(OH)_0.31_)_2_
Cell parameters: a: 5.1937(8) b: 9.005(2) c: 20.052(1) alpha: 90 beta: 95.555(8) gamma: 90 volume: 933.5(2) crystal system: monoclinic
x	intensity
5	0
5.22	16.919
5.44	8.101
5.66	3.343
5.88	21.238
6.1	13.1
6.32	17.729
6.54	4.547
6.76	3.712
6.98	12.35
7.2	2.307
7.42	1.079
7.64	13.664
7.86	2.885
8.08	10.345
8.3	1.469
8.52	14.02
8.74	53.546
8.96	354.858
9.18	10.094
9.4	3.459
9.62	6.273
9.84	3.387
10.06	11.415
10.28	5.728
10.5	8.714
10.72	7.956
10.94	1.693
11.16	15.477
11.38	13.015
11.6	9.278
11.82	13.532
12.04	14.426
12.26	6.19
12.48	1.014
12.7	7.492
12.92	7.396
13.14	3.912
13.36	6.95
13.58	13.563
13.8	4.48
14.02	11.673
14.24	4.845
14.46	8.833
14.68	5.172
14.9	2.245
15.12	2.772
15.34	5.519
15.56	4.102
15.78	8.992
16	3.961
16.22	8.846
16.44	10.554
16.66	4.164
16.88	5.892
17.1	2.415
17.32	4.305
17.54	5.132
17.76	163.714
17.98	27.27
18.2	16.475
18.42	3.591
18.64	8.439
18.86	11.366
19.08	12.312
19.3	12.279
19.52	14.17
19.74	16.046
19.96	47.396
20.18	16.095
20.4	9.099
20.62	2.361
20.84	0.302
21.06	9.998
21.28	1.957
21.5	6.308
21.72	17.332
21.94	1.206
22.16	11.815
22.38	16.079
22.6	1.624
22.82	9.971
23.04	21.354
23.26	14.319
23.48	3.742
23.7	13.365
23.92	19.31
24.14	14.069
24.36	4.296
24.58	50.577
24.8	5.77
25.02	2.844
25.24	2.814
25.46	26.309
25.68	54.835
25.9	9.466
26.12	0.459
26.34	9.77
26.56	26.503
26.78	306.457
27	65.501
27.22	13.724
27.44	0.845
27.66	12.603
27.88	81.998
28.1	10.446
28.32	6.393
28.54	18.346
28.76	32.467
28.98	27.789
29.2	26.22
29.42	0.034
29.64	16.868
29.86	26.874
30.08	36.078
30.3	0.332
30.52	7.853
30.74	23.272
30.96	26.078
31.18	36.693
31.4	15.453
31.62	2.724
31.84	10.319
32.06	18.459
32.28	30.307
32.5	1.941
32.72	4.972
32.94	2.82
33.16	6.251
33.38	8.327
33.6	8.18
33.82	5.661
34.04	7.686
34.26	4.7
34.48	7.819
34.7	41.679
34.92	58.034
35.14	50.041
35.36	15.526
35.58	9.83
35.8	10.415
36.02	60.47
36.24	3.43
36.46	5.505
36.68	2.708
36.9	14.725
37.12	9.084
37.34	8.835
37.56	14.483
37.78	23.37
38	16.516
38.22	5.035
38.44	3.149
38.66	1.077
38.88	4.748
39.1	1.67
39.32	4.295
39.54	4.717
39.76	3.663
39.98	12.19
40.2	16.463
40.42	6.87
40.64	8.125
40.86	14.416
41.08	3.838
41.3	13.396
41.52	5.879
41.74	1.117
41.96	6.829
42.18	9.361
42.4	23.931
42.62	16.012
42.84	0.68
43.06	8.126
43.28	9.557
43.5	11.249
43.72	2.324
43.94	10.897
44.16	6.301
44.38	8.726
44.6	12.692
44.82	17.75
45.04	7.862
45.26	27.03
45.48	282.466
45.7	58.182
45.92	14.918
46.14	3.55
46.36	11.29
46.58	0.533
46.8	6.355
47.02	0.182
47.24	3.883
47.46	6.462
47.68	0.026
47.9	2.329
48.12	4.516
48.34	2.721
48.56	5.6
48.78	2.952
49	7.95
49.22	12.081
49.44	7.318
49.66	4.534
49.88	3.742
50.1	6.113
50.32	11.312
50.54	3.672
50.76	14.734
50.98	10.984
51.2	0.194
51.42	7.366
51.64	5.893
51.86	1.427
52.08	7.896
52.3	4.331
52.52	10.533
52.74	12.125
52.96	8.357
53.18	5.778
53.4	8.169
53.62	1.185
53.84	1.438
54.06	6.047
54.28	1.719
54.5	4.464
54.72	7.254
54.94	8.025
55.16	7.784
55.38	18.905
55.6	11.036
55.82	13.073
56.04	15.08
56.26	0.693
56.48	2.445
56.7	0.6
56.92	6.782
57.14	4.972
57.36	16.222
57.58	17.419
57.8	18.695
58.02	10.969
58.24	7.045
58.46	3.395
58.68	10.918
58.9	12.348
59.12	3.133
59.34	9.418
59.56	0.614
59.78	0.346
60	2.574
60.22	6.057
60.44	5.511
60.66	13.132
60.88	1.191
61.1	9.182
61.32	1.86
61.54	6.58
61.76	21.325
61.98	13.527
62.2	3.042
62.42	5.771
62.64	3.569
62.86	6.209
63.08	6.859
63.3	6.498
63.52	9.977
63.74	6.371
63.96	7.591
64.18	8.548
64.4	6.589
64.62	4.148
64.84	7.71
65.06	2.086
65.28	8.611
65.5	3.427
65.72	5.986
65.94	5.883
66.16	8.603
66.38	8.303
66.6	3.438
66.82	7.494
67.04	4.498
67.26	10.324
67.48	3.272
67.7	3.393
67.92	11.543
68.14	10.489
68.36	5.203
68.58	8.143
68.8	8.102
69.02	0.767
69.24	2.615
69.46	15.764
69.68	7.973
69.9	13.244
70.12	8.108
70.34	8.933
70.56	6.112
70.78	1.664
71	1.43
71.22	6.248
71.44	2.366
71.66	16.327
71.88	2.406
72.1	6.357
72.32	0.267
72.54	4.315
72.76	8.44
72.98	14.799
73.2	1.871
73.42	1.967
73.64	6.871
73.86	4.355
74.08	3.676
74.3	3.797
74.52	4.141
74.74	4.27
74.96	5.341
75.18	1.273
75.4	5.037
75.62	1.048
75.84	10.788
76.06	19.607
76.28	9.551
76.5	20.496
76.72	1.304
76.94	4.176
77.16	5.393
77.38	7.833
77.6	5.233
77.82	0.379
78.04	5.941
78.26	8.196
78.48	9.338
78.7	6.323
78.92	6.309
79.14	3.767
79.36	1.711
79.58	8.673
79.8	2.546
80.02	6.474
80.24	6.313
80.46	0.133
80.68	1.225
80.9	3.389
81.12	5.753
81.34	6.681
81.56	4.9
81.78	5.127
82	2.227
82.22	1.219
82.44	2.238
82.66	7.351
82.88	5.426
83.1	5.593
83.32	8.743
83.54	8.691
83.76	10.92
83.98	1.164
84.2	10.189
84.42	0.712
84.64	3.363
84.86	4.763
85.08	3.796
85.3	2.798
85.52	1.664
85.74	6.435
85.96	1.405
86.18	5.4
86.4	3.212
86.62	1.122
86.84	3.187
87.06	7.989
87.28	2.738
87.5	1.731
87.72	3.747
87.94	5.67
88.16	3.821
88.38	3.961
88.6	1.935
88.82	2.034
89.04	4.095
89.26	1.34
89.48	5.704
89.7	1.955
89.92	0.075
