Measurement: Powder, Xray Data XY Processed
Mineral: Polyhalite
Rruff sample: R070209
Ideal chemistry: K_2_Ca_2_Mg(S^6+^O_4_)_4_2H_2_O
Locality: West Texas, Texas, USA
Source: Michael Scott
Description: Colorless to brick red massive
Diffraction sample description: Powder
Cell parameters: a: 6.9577(4) b: 6.9578(3) c: 8.8894(5) alpha: 104.077(4) beta: 101.209(5) gamma: 113.914(4) volume: 360.15(3) crystal system: triclinic
x	intensity
5	0
5.22	4.89671
5.44	2.37865
5.66	8.00731
5.88	6.77159
6.1	12.827
6.32	11.0596
6.54	14.3702
6.76	13.5384
6.98	14.174
7.2	4.14008
7.42	5.63369
7.64	7.47636
7.86	1.18121
8.08	3.26932
8.3	7.84079
8.52	2.44739
8.74	15.9063
8.96	11.0913
9.18	9.29383
9.4	8.31791
9.62	11.0401
9.84	10.1573
10.06	2.28928
10.28	0.575805
10.5	6.33037
10.72	10.6366
10.94	4.79507
11.16	5.09446
11.38	10.6799
11.6	4.00379
11.82	2.1238
12.04	5.41658
12.26	1.63761
12.48	4.52872
12.7	2.44547
12.92	5.49903
13.14	8.69192
13.36	0.114495
13.58	1.55149
13.8	4.25651
14.02	5.10299
14.24	0.101211
14.46	6.01054
14.68	27.0954
14.9	40.3144
15.12	16.6109
15.34	5.67195
15.56	6.63533
15.78	8.629
16	4.76444
16.22	2.23797
16.44	8.53222
16.66	2.63571
16.88	5.70644
17.1	5.7244
17.32	4.50037
17.54	6.10039
17.76	3.0819
17.98	1.92707
18.2	4.79788
18.42	52.7805
18.64	2.89318
18.86	0.843524
19.08	2.87348
19.3	10.108
19.52	1.26107
19.74	3.50489
19.96	4.45835
20.18	2.40109
20.4	4.37375
20.62	6.387
20.84	4.3741
21.06	5.97933
21.28	8.18881
21.5	33.447
21.72	13.2676
21.94	19.1306
22.16	0.862761
22.38	4.23346
22.6	6.31063
22.82	4.8249
23.04	6.07266
23.26	11.263
23.48	12.1584
23.7	1.94927
23.92	5.64902
24.14	2.37271
24.36	6.30041
24.58	6.89409
24.8	0.85709
25.02	6.19439
25.24	6.74953
25.46	28.2138
25.68	35.9108
25.9	8.7015
26.12	120.157
26.34	23.7063
26.56	34.2819
26.78	3.12257
27	7.00738
27.22	2.60475
27.44	3.5335
27.66	19.8037
27.88	36.0497
28.1	612.549
28.32	18.1234
28.54	14.7568
28.76	3.54754
28.98	0.095828
29.2	0.491874
29.42	4.72632
29.64	1.15445
29.86	0.883428
30.08	93.6205
30.3	137.457
30.52	36.7696
30.74	483.791
30.96	120.709
31.18	26.5897
31.4	104.057
31.62	29.1412
31.84	14.0665
32.06	0.840023
32.28	20.3225
32.5	6.51649
32.72	1.79033
32.94	23.3382
33.16	7.29206
33.38	1.31605
33.6	3.4751
33.82	9.78557
34.04	2.36162
34.26	3.45695
34.48	3.62556
34.7	5.29872
34.92	0.759529
35.14	22.8048
35.36	3.74358
35.58	9.03816
35.8	19.1056
36.02	28.2135
36.24	2.7655
36.46	5.32579
36.68	21.9887
36.9	23.388
37.12	26.4021
37.34	38.5508
37.56	0.186618
37.78	10.4957
38	3.73074
38.22	55.2326
38.44	9.75759
38.66	19.2551
38.88	8.55303
39.1	4.63143
39.32	2.76593
39.54	3.64016
39.76	1.46546
39.98	2.25176
40.2	32.0755
40.42	23.7596
40.64	48.9508
40.86	10.8306
41.08	6.88163
41.3	15.7501
41.52	20.3229
41.74	0.804087
41.96	6.27699
42.18	3.89911
42.4	2.37233
42.62	2.7435
42.84	5.08576
43.06	2.06286
43.28	4.9656
43.5	8.60768
43.72	6.29675
43.94	1.04692
44.16	10.5495
44.38	10.1699
44.6	1.62763
44.82	11.2028
45.04	6.81858
45.26	23.0056
45.48	6.79723
45.7	11.667
45.92	5.6845
46.14	14.6045
46.36	5.90612
46.58	31.044
46.8	16.1112
47.02	12.2141
47.24	4.58696
47.46	2.79812
47.68	8.37738
47.9	29.5739
48.12	36.7751
48.34	2.3344
48.56	35.882
48.78	4.04165
49	28.0983
49.22	9.20129
49.44	0.25019
49.66	1.03573
49.88	9.19144
50.1	29.9078
50.32	15.587
50.54	23.2168
50.76	6.21705
50.98	10.4784
51.2	27.9015
51.42	13.5821
51.64	25.3123
51.86	8.1073
52.08	2.00781
52.3	0.740977
52.52	10.3036
52.74	15.4836
52.96	37.7852
53.18	2.95442
53.4	1.09322
53.62	3.40695
53.84	13.2209
54.06	17.3195
54.28	8.75155
54.5	21.288
54.72	3.1622
54.94	5.33432
55.16	9.57005
55.38	4.67845
55.6	0.332269
55.82	9.74709
56.04	0.470294
56.26	12.2055
56.48	6.62382
56.7	17.584
56.92	7.37297
57.14	19.4098
57.36	6.62633
57.58	10.6762
57.8	12.0387
58.02	29.3186
58.24	8.52088
58.46	5.84693
58.68	12.0241
58.9	5.99636
59.12	6.18764
59.34	19.6504
59.56	11.6548
59.78	10.5468
60	10.3974
60.22	12.1111
60.44	7.04512
60.66	4.13864
60.88	7.77678
61.1	14.5099
61.32	12.267
61.54	0.9223
61.76	6.40926
61.98	2.28192
62.2	10.1217
62.42	8.18349
62.64	10.0902
62.86	19.6342
63.08	8.50137
63.3	13.1958
63.52	9.3733
63.74	14.5368
63.96	26.5752
64.18	10.0007
64.4	6.31094
64.62	8.50326
64.84	8.67704
65.06	10.1512
65.28	5.51479
65.5	6.70125
65.72	4.75566
65.94	1.26061
66.16	7.70627
66.38	5.11342
66.6	2.1579
66.82	10.0674
67.04	1.13219
67.26	2.00049
67.48	1.10502
67.7	11.956
67.92	21.3872
68.14	9.94765
68.36	5.50981
68.58	4.00523
68.8	0.567233
69.02	3.38511
69.24	12.083
69.46	12.8642
69.68	3.90634
69.9	13.3541
70.12	9.29758
70.34	0.461051
70.56	6.82744
70.78	3.28448
71	11.4193
71.22	13.5597
71.44	5.56907
71.66	3.85667
71.88	6.13079
72.1	1.14369
72.32	1.18292
72.54	8.17573
72.76	6.14005
72.98	0.994611
73.2	3.61122
73.42	10.5223
73.64	10.4266
73.86	0.761286
74.08	7.0459
74.3	6.9653
74.52	4.85312
74.74	16.2638
74.96	6.64727
75.18	11.6264
75.4	11.6502
75.62	10.785
75.84	2.20244
76.06	5.29094
76.28	5.3351
76.5	6.30021
76.72	3.25021
76.94	8.24115
77.16	13.3883
77.38	25.0481
77.6	6.07398
77.82	5.00264
78.04	6.11193
78.26	2.77365
78.48	12.3633
78.7	5.5739
78.92	2.59532
79.14	3.61414
79.36	0.667601
79.58	9.58337
79.8	12.4721
80.02	13.3037
80.24	14.1502
80.46	0.791666
80.68	0.439642
80.9	14.2113
81.12	9.18626
81.34	13.4167
81.56	4.52754
81.78	5.71918
82	8.77758
82.22	1.11484
82.44	9.46741
82.66	2.69962
82.88	2.93508
83.1	0.101355
83.32	10.4666
83.54	4.71532
83.76	4.96663
83.98	7.94438
84.2	9.59663
84.42	2.62473
84.64	1.60672
84.86	0.451399
85.08	3.51271
85.3	2.581
85.52	10.5826
85.74	5.24391
85.96	10.9331
86.18	0.408927
86.4	2.59096
86.62	1.21485
86.84	9.95916
87.06	4.90895
87.28	2.6339
87.5	11.6366
87.72	12.4453
87.94	3.4743
88.16	1.33724
88.38	13.0256
88.6	8.41567
88.82	6.87561
89.04	10.3499
89.26	2.93687
89.48	3.52625
89.7	13.7027
89.92	5.56492
