Measurement: Powder, Xray Data XY Processed
Mineral: Potassic-fluoro-richterite
Rruff sample: R060034
Ideal chemistry: K(NaCa)Mg_5_Si_8_O_22_F_2_
Locality: Walgidee, Western Australia, Australia
Source: University of Arizona Mineral Museum
Description: Transparent brown water worn crystal fragment
Diffraction sample description: Powder
Measured chemistry: (K_0.98_Na_0.02_)_Σ=1_(Ca_1.10_Na_0.90_)_Σ=2_(Mg_4.69_Fe^2+^_0.30_Mn_0.01_)_Σ=5_(Si_7.50_Ti_0.40_Al_0.10_)_Σ=8_O_22_((F_0.74_(OH)_0.26_)_2_
Cell parameters: a: 9.9067(3) b: 18.079(2) c: 5.3091(5) alpha: 90 beta: 105.077(5) gamma: 90 volume: 918.14(8) crystal system: monoclinic
x	intensity
5	0
5.22	3.643
5.44	2.221
5.66	13.68
5.88	3.606
6.1	16.796
6.32	18.452
6.54	11.783
6.76	5.099
6.98	6.966
7.2	6.939
7.42	8.875
7.64	4.088
7.86	2.888
8.08	14.774
8.3	5.519
8.52	0.878
8.74	6.653
8.96	1.292
9.18	1.612
9.4	3.463
9.62	9.764
9.84	31.971
10.06	1.046
10.28	22.444
10.5	17.685
10.72	1.268
10.94	1.438
11.16	14.762
11.38	4.903
11.6	0.186
11.82	1.741
12.04	6.958
12.26	5.339
12.48	2.354
12.7	7.343
12.92	9.541
13.14	9.267
13.36	8.287
13.58	0.552
13.8	5.548
14.02	3.756
14.24	4.9
14.46	5.826
14.68	4.052
14.9	10.271
15.12	0.641
15.34	1.374
15.56	4.414
15.78	7.607
16	0.333
16.22	6.771
16.44	6.404
16.66	7.567
16.88	2.491
17.1	8.413
17.32	4.164
17.54	12.076
17.76	2.97
17.98	8.268
18.2	8.057
18.42	18.025
18.64	7.846
18.86	10.885
19.08	0.69
19.3	0.099
19.52	11.06
19.74	42.216
19.96	8.659
20.18	3.872
20.4	2.873
20.62	11.061
20.84	3.994
21.06	7.204
21.28	1.15
21.5	7.106
21.72	3.782
21.94	3.627
22.16	10.469
22.38	4.123
22.6	2.923
22.82	3.519
23.04	4.56
23.26	5.651
23.48	5.432
23.7	4.44
23.92	9.413
24.14	7.571
24.36	4.733
24.58	8.012
24.8	9.977
25.02	0.986
25.24	9.626
25.46	11.294
25.68	4.165
25.9	5.504
26.12	2.122
26.34	133.729
26.56	3.496
26.78	5.307
27	34.621
27.22	7.33
27.44	15.905
27.66	0.172
27.88	4.269
28.1	126.332
28.32	6.49
28.54	13.731
28.76	1.004
28.98	5.921
29.2	14.804
29.42	1.784
29.64	7.968
29.86	11.431
30.08	7.126
30.3	74.005
30.52	15.95
30.74	1.318
30.96	4.374
31.18	3.233
31.4	4.162
31.62	21.256
31.84	12.226
32.06	9.219
32.28	16.118
32.5	45.642
32.72	10.911
32.94	7.991
33.16	72.205
33.38	4.953
33.6	1.926
33.82	3.064
34.04	2.17
34.26	21.276
34.48	4.368
34.7	44.969
34.92	7.222
35.14	13.168
35.36	41.166
35.58	5.893
35.8	4.99
36.02	7.174
36.24	8.053
36.46	3.948
36.68	9.037
36.9	4.955
37.12	6.298
37.34	10.786
37.56	2.04
37.78	0.018
38	15.078
38.22	68.008
38.44	10.979
38.66	7.163
38.88	1.311
39.1	10.206
39.32	48.391
39.54	9.422
39.76	4.433
39.98	5.174
40.2	2.189
40.42	1.097
40.64	2.133
40.86	12.033
41.08	11.369
41.3	0.628
41.52	12.588
41.74	39.816
41.96	7.998
42.18	6.573
42.4	8.595
42.62	2.648
42.84	8.806
43.06	3.811
43.28	4.779
43.5	9.283
43.72	3.202
43.94	0.052
44.16	15.821
44.38	15.698
44.6	17.254
44.82	13.41
45.04	10.724
45.26	1.72
45.48	0.736
45.7	4.784
45.92	13.94
46.14	2.07
46.36	5.9
46.58	0.946
46.8	5.986
47.02	1.283
47.24	74.522
47.46	8.385
47.68	5.372
47.9	5.336
48.12	7.327
48.34	2.263
48.56	3.352
48.78	10.608
49	15.648
49.22	8.107
49.44	11.381
49.66	0.435
49.88	0.567
50.1	0.836
50.32	1.05
50.54	6.401
50.76	8.527
50.98	1.405
51.2	13.553
51.42	5.542
51.64	4.017
51.86	0.127
52.08	6.029
52.3	0.811
52.52	9.278
52.74	7.337
52.96	11.039
53.18	4.854
53.4	7.668
53.62	1.322
53.84	5.42
54.06	1.172
54.28	6.934
54.5	9.483
54.72	2.97
54.94	10.69
55.16	17.842
55.38	30.887
55.6	9.843
55.82	5.857
56.04	2.578
56.26	7.842
56.48	9.882
56.7	5.281
56.92	6.352
57.14	18.659
57.36	1.257
57.58	7.924
57.8	5.703
58.02	10.639
58.24	6.592
58.46	11.525
58.68	13.686
58.9	2.841
59.12	10.703
59.34	25.949
59.56	6.936
59.78	0.645
60	1.24
60.22	1.861
60.44	2.986
60.66	7.05
60.88	10.104
61.1	25.039
61.32	23.861
61.54	18.222
61.76	20.722
61.98	1.505
62.2	1.305
62.42	3.595
62.64	1.666
62.86	10.03
63.08	0.811
63.3	13.532
63.52	9.636
63.74	4.461
63.96	35.948
64.18	8.549
64.4	6.912
64.62	9.153
64.84	2.681
65.06	2.167
65.28	3.134
65.5	0.683
65.72	3.872
65.94	12.861
66.16	10.112
66.38	5.456
66.6	0.626
66.82	5.316
67.04	4.226
67.26	13.884
67.48	1.836
67.7	3.451
67.92	10.248
68.14	23.007
68.36	18.962
68.58	9.858
68.8	14.429
69.02	4.914
69.24	5.7
69.46	4.565
69.68	3.43
69.9	7.141
70.12	5.909
70.34	8.39
70.56	15.767
70.78	32.533
71	9.454
71.22	9.559
71.44	1.716
71.66	6.086
71.88	1.09
72.1	11.102
72.32	10.145
72.54	1.525
72.76	3.988
72.98	12.565
73.2	7.572
73.42	4.632
73.64	7.939
73.86	8.06
74.08	0.15
74.3	11.029
74.52	1.679
74.74	8.919
74.96	11.97
75.18	5.097
75.4	4.44
75.62	4.361
75.84	2.717
76.06	6.543
76.28	8.063
76.5	1.867
76.72	6.288
76.94	9.691
77.16	2.655
77.38	4.564
77.6	6.662
77.82	9.365
78.04	8.216
78.26	10.129
78.48	1.074
78.7	2.498
78.92	1.541
79.14	11.371
79.36	26.705
79.58	0.861
79.8	1.225
80.02	6.289
80.24	4.414
80.46	0.425
80.68	7.746
80.9	7
81.12	4.986
81.34	3.968
81.56	9.843
81.78	8.386
82	0.052
82.22	9.001
82.44	9.003
82.66	4.086
82.88	1.091
83.1	5.237
83.32	1.24
83.54	4.704
83.76	9.705
83.98	3.776
84.2	8.832
84.42	8.747
84.64	2.05
84.86	6.986
85.08	5.877
85.3	12.777
85.52	10.547
85.74	0.497
85.96	10.106
86.18	7.03
86.4	0.071
86.62	7.127
86.84	5.291
87.06	3.292
87.28	8.268
87.5	11.369
87.72	1.501
87.94	2.623
88.16	3.7
88.38	1.841
88.6	8.064
88.82	3.394
89.04	14.139
89.26	4.553
89.48	9.975
89.7	8.221
89.92	8.93
