Measurement: Powder, Xray Data XY Processed
Mineral: Prehnite
Rruff sample: R040047
Ideal chemistry: Ca_2_Al(Si_3_Al)O_10_(OH)_2_
Locality: Chloride, Mohave County, Arizona, USA
Source: University of Arizona Mineral Museum
Description: Green coarsely crystalline massive
Diffraction sample description: Powder
Measured chemistry: Light bands: Ca_2.01_(Al_1.61_Fe_0.43_)Si_3.08_O_10_(OH)_2_; Dark bands: Ca_1.99_(Al_1.82_Fe_0.19_)Si_3.04_O_10_(OH)_2_
Cell parameters: a: 4.649(1) b: 5.4888(9) c: 18.582(6) alpha: 90. beta: 90. gamma: 90. volume: 474.2(1) crystal system: orthorhombic
x	intensity
5	0
5.22	6.903
5.44	22.367
5.66	18.12
5.88	8.249
6.1	12.616
6.32	8.078
6.54	10.271
6.76	3.948
6.98	13.548
7.2	13.478
7.42	17.24
7.64	7.705
7.86	2.174
8.08	6.782
8.3	15.126
8.52	8.295
8.74	16.595
8.96	7.805
9.18	9.494
9.4	12.641
9.62	52.881
9.84	8.953
10.06	0.832
10.28	3.465
10.5	7.513
10.72	6.448
10.94	16.708
11.16	7.089
11.38	4.174
11.6	0.314
11.82	3.198
12.04	9.593
12.26	21.883
12.48	20.384
12.7	13.654
12.92	18.39
13.14	13.026
13.36	13.118
13.58	6.027
13.8	12.089
14.02	20.557
14.24	11.362
14.46	11.22
14.68	7.878
14.9	2.68
15.12	5.273
15.34	1.341
15.56	11.124
15.78	6.001
16	3.962
16.22	17.971
16.44	14.979
16.66	1.054
16.88	123.399
17.1	14.881
17.32	15.299
17.54	6.358
17.76	19.965
17.98	7.241
18.2	0.733
18.42	8.073
18.64	10.95
18.86	12.904
19.08	129.855
19.3	16.146
19.52	17.502
19.74	20.217
19.96	5.922
20.18	4.718
20.4	0.547
20.62	3.159
20.84	2.975
21.06	13.988
21.28	11.722
21.5	32.23
21.72	20.5
21.94	10.87
22.16	4.27
22.38	8.645
22.6	14.375
22.82	3.242
23.04	10.169
23.26	14.157
23.48	2.515
23.7	3.448
23.92	3.728
24.14	4.521
24.36	0.778
24.58	3.09
24.8	10.064
25.02	25.879
25.24	53.2
25.46	29.99
25.68	159.552
25.9	9.572
26.12	11.504
26.34	7.696
26.56	2.497
26.78	13.924
27	129.164
27.22	123.537
27.44	14.934
27.66	22.118
27.88	6.624
28.1	5.659
28.32	0.774
28.54	7.297
28.76	39.976
28.98	333.035
29.2	114.052
29.42	15.438
29.64	20.585
29.86	1.224
30.08	13.714
30.3	7.432
30.52	21.753
30.74	6.913
30.96	10.741
31.18	1.322
31.4	4.077
31.62	35.715
31.84	109.172
32.06	1.945
32.28	4.69
32.5	2.441
32.72	38.182
32.94	12.924
33.16	2.693
33.38	1.614
33.6	3.85
33.82	5.461
34.04	58.208
34.26	9.996
34.48	7.887
34.7	22.563
34.92	219.952
35.14	141.646
35.36	22.571
35.58	6.131
35.8	22.55
36.02	7.172
36.24	5.838
36.46	8.852
36.68	22.346
36.9	7.001
37.12	2.361
37.34	3.786
37.56	15.917
37.78	31.687
38	40.965
38.22	50.478
38.44	56.119
38.66	80.086
38.88	60.453
39.1	12.364
39.32	9.258
39.54	1.188
39.76	10.046
39.98	9.824
40.2	7.715
40.42	15.956
40.64	9.516
40.86	24.072
41.08	13.444
41.3	23.381
41.52	7.843
41.74	15.313
41.96	7.148
42.18	26.135
42.4	10.72
42.62	39.144
42.84	25.152
43.06	6.426
43.28	12.465
43.5	26.275
43.72	28.161
43.94	4.697
44.16	17.094
44.38	31.214
44.6	1.954
44.82	9.668
45.04	11.768
45.26	21.175
45.48	14.178
45.7	4.684
45.92	24.216
46.14	7.187
46.36	6.704
46.58	24.688
46.8	62.132
47.02	39.255
47.24	10.256
47.46	1.09
47.68	0.993
47.9	1.907
48.12	4.141
48.34	5.228
48.56	5.323
48.78	2.115
49	52.567
49.22	32.679
49.44	15.411
49.66	4.414
49.88	3.297
50.1	0.15
50.32	11.906
50.54	8.671
50.76	8.291
50.98	23.734
51.2	37.07
51.42	96.685
51.64	71.808
51.86	34.512
52.08	21.048
52.3	13.482
52.52	6.83
52.74	1.079
52.96	10.182
53.18	18.736
53.4	8.871
53.62	14.981
53.84	37.256
54.06	33.571
54.28	12.474
54.5	12.367
54.72	1.627
54.94	18.11
55.16	27.069
55.38	30.993
55.6	1.7
55.82	23.401
56.04	18.808
56.26	23.182
56.48	12.533
56.7	10.889
56.92	7.872
57.14	3.917
57.36	11.202
57.58	6.268
57.8	8.421
58.02	0.407
58.24	5.118
58.46	7.531
58.68	5.308
58.9	23.192
59.12	8.153
59.34	2.474
59.56	7.066
59.78	55.771
60	52.709
60.22	50.28
60.44	22.945
60.66	5.586
60.88	0.006
61.1	5.295
61.32	11.309
61.54	26.473
61.76	17.927
61.98	10.79
62.2	6.878
62.42	17.802
62.64	3.046
62.86	10.824
63.08	7.605
63.3	1.25
63.52	20.023
63.74	22.708
63.96	24.023
64.18	13.337
64.4	16.589
64.62	21.878
64.84	6.214
65.06	6.505
65.28	5.622
65.5	6.673
65.72	15.927
65.94	27.749
66.16	38.017
66.38	34.488
66.6	18.951
66.82	4.851
67.04	2.012
67.26	4.141
67.48	32.314
67.7	9.513
67.92	9.748
68.14	6.474
68.36	27.157
68.58	13.298
68.8	10.736
69.02	15.967
69.24	19.316
69.46	12.021
69.68	23.933
69.9	35.132
70.12	14.945
70.34	3.728
70.56	7.664
70.78	3.313
71	11.17
71.22	6.692
71.44	13.42
71.66	23.684
71.88	2.62
72.1	4.304
72.32	5.406
72.54	4.351
72.76	12.282
72.98	6.278
73.2	22.232
73.42	27.714
73.64	23.079
73.86	10.402
74.08	1.952
74.3	11.879
74.52	6.429
74.74	10.907
74.96	9.069
75.18	32.636
75.4	5.029
75.62	2.86
75.84	18.651
76.06	1.458
76.28	12.598
76.5	15.394
76.72	24.092
76.94	11.946
77.16	0.118
77.38	12.831
77.6	6.727
77.82	5.223
78.04	3.246
78.26	0.693
78.48	8.151
78.7	4.967
78.92	10.2
79.14	14.578
79.36	26.706
79.58	21.664
79.8	3.613
80.02	8.28
80.24	18.13
80.46	5.69
80.68	11.566
80.9	16.358
81.12	2.94
81.34	21.372
81.56	16.591
81.78	4.188
82	0.65
82.22	15.909
82.44	17.124
82.66	3.258
82.88	19.151
83.1	16.125
83.32	9.578
83.54	13.144
83.76	7.688
83.98	8.094
84.2	3.959
84.42	15.268
84.64	13.714
84.86	4.989
85.08	1.252
85.3	17.943
85.52	6.353
85.74	3.263
85.96	3.358
86.18	11.532
86.4	16.549
86.62	7.089
86.84	6.26
87.06	13.142
87.28	12.513
87.5	6.613
87.72	9.579
87.94	0.162
88.16	1.137
88.38	6
88.6	16.29
88.82	19.454
89.04	3.839
89.26	15.393
89.48	11.386
89.7	11.075
89.92	12.965
