Measurement: Powder, Xray Data XY Processed
Mineral: Probertite
Rruff sample: R050284
Ideal chemistry: NaCaB_5_O_7_(OH)_4_3H_2_O
Locality: Borax Open Pit, Boron, Kern County, California, USA
Source: Marcus Origlieri
Description: Spray of colorless acicular single crystals
Diffraction sample description: Powder
Measured chemistry: Na_1.00_Ca_1.00_B_5.00_O_7_(OH)_4_Â·3H_2_O
Cell parameters: a: 6.5816(7) b: 12.5516(6) c: 13.4183(9) alpha: 90 beta: 100.021(7) gamma: 90 volume: 1091.6(0) crystal system: monoclinic
x	intensity
5	0
5.22	7.41731
5.44	6.03874
5.66	4.66796
5.88	10.1024
6.1	4.62611
6.32	7.35401
6.54	3.36822
6.76	14.3797
6.98	12.386
7.2	7.96317
7.42	6.69775
7.64	2.60663
7.86	6.54353
8.08	9.44469
8.3	1.12385
8.52	0.447745
8.74	5.51636
8.96	0.301183
9.18	7.72447
9.4	11.1004
9.62	128.484
9.84	167.082
10.06	27.2345
10.28	4.52204
10.5	7.84978
10.72	7.53276
10.94	4.61414
11.16	7.35537
11.38	4.22167
11.6	1.84049
11.82	5.1918
12.04	0.614702
12.26	8.81022
12.48	11.1206
12.7	7.15966
12.92	10.2874
13.14	12.4291
13.36	45.9401
13.58	20.4444
13.8	9.23697
14.02	12.1768
14.24	0.819221
14.46	2.22123
14.68	4.29927
14.9	0.355562
15.12	7.67573
15.34	24.9368
15.56	4.73885
15.78	11.6976
16	1.88176
16.22	8.0254
16.44	3.15658
16.66	8.27968
16.88	3.48064
17.1	10.0622
17.32	0.493389
17.54	11.6877
17.76	77.432
17.98	1.37819
18.2	7.18532
18.42	2.6706
18.64	3.35227
18.86	75.1237
19.08	4.9107
19.3	4.74863
19.52	52.871
19.74	60.8954
19.96	19.172
20.18	5.09902
20.4	7.05826
20.62	3.01434
20.84	0.913979
21.06	7.11155
21.28	10.0784
21.5	14.1259
21.72	8.33053
21.94	29.4528
22.16	16.012
22.38	103.682
22.6	3.80467
22.82	3.40391
23.04	1.41123
23.26	6.64699
23.48	74.0137
23.7	12.1289
23.92	0.91882
24.14	3.99182
24.36	6.68358
24.58	3.63912
24.8	7.86277
25.02	11.0322
25.24	139.479
25.46	29.1592
25.68	9.24775
25.9	5.80122
26.12	3.22746
26.34	1.80713
26.56	14.4807
26.78	0.142105
27	50.7462
27.22	8.32479
27.44	12.5929
27.66	41.3888
27.88	0.092689
28.1	30.4744
28.32	3.20043
28.54	24.1664
28.76	13.7979
28.98	14.887
29.2	17.6504
29.42	33.453
29.64	7.9494
29.86	3.56578
30.08	10.0861
30.3	13.1578
30.52	31.8354
30.74	73.5664
30.96	29.2278
31.18	25.3652
31.4	5.93777
31.62	65.5129
31.84	27.6529
32.06	43.7639
32.28	0.88226
32.5	2.43159
32.72	8.77754
32.94	47.0264
33.16	9.24303
33.38	25.7073
33.6	26.4643
33.82	3.24563
34.04	14.3971
34.26	4.36903
34.48	6.42673
34.7	111.376
34.92	7.55571
35.14	67.4834
35.36	9.75025
35.58	70.0777
35.8	11.0812
36.02	15.8877
36.24	1.99633
36.46	31.5643
36.68	6.96767
36.9	40.2484
37.12	5.5143
37.34	5.50026
37.56	0.174095
37.78	5.45777
38	2.86132
38.22	13.9646
38.44	26.2223
38.66	57.1269
38.88	2.50733
39.1	11.1721
39.32	7.70813
39.54	14.2053
39.76	35.9485
39.98	24.1464
40.2	5.09754
40.42	23.3462
40.64	6.84741
40.86	18.656
41.08	1.09236
41.3	5.22474
41.52	50.1286
41.74	50.2691
41.96	1.69235
42.18	0.549734
42.4	19.1347
42.62	14.5877
42.84	19.65
43.06	1.3456
43.28	7.03294
43.5	37.8888
43.72	26.876
43.94	34.6223
44.16	5.47489
44.38	22.1284
44.6	6.75582
44.82	31.3794
45.04	28.8243
45.26	2.54602
45.48	95.1676
45.7	43.6554
45.92	31.0862
46.14	12.0088
46.36	11.4664
46.58	12.8373
46.8	0.221262
47.02	33.6735
47.24	3.20236
47.46	4.97206
47.68	0.431437
47.9	13.025
48.12	19.6397
48.34	3.02427
48.56	16.8294
48.78	23.756
49	24.8302
49.22	2.80754
49.44	0.24984
49.66	1.51804
49.88	11.1481
50.1	43.9022
50.32	3.77594
50.54	31.3865
50.76	54.5741
50.98	27.3823
51.2	12.8608
51.42	38.5198
51.64	5.25747
51.86	3.81184
52.08	3.53928
52.3	5.92529
52.52	11.7648
52.74	11.2817
52.96	0.72669
53.18	3.9096
53.4	2.14337
53.62	0.014153
53.84	14.8654
54.06	24.7148
54.28	7.70143
54.5	10.6595
54.72	14.0665
54.94	7.48107
55.16	12.5324
55.38	4.61686
55.6	12.5798
55.82	11.678
56.04	2.987
56.26	2.31889
56.48	7.56133
56.7	11.0506
56.92	19.2091
57.14	6.98872
57.36	5.91798
57.58	2.9813
57.8	9.04969
58.02	7.04868
58.24	17.0186
58.46	3.83785
58.68	6.00229
58.9	12.3684
59.12	3.98368
59.34	15.8289
59.56	4.71577
59.78	0.451229
60	5.35568
60.22	7.177
60.44	5.938
60.66	9.721
60.88	32.6595
61.1	8.80338
61.32	5.43622
61.54	6.38456
61.76	10.1498
61.98	0.5552
62.2	1.0613
62.42	0.753254
62.64	8.52956
62.86	3.82393
63.08	3.21704
63.3	2.62914
63.52	5.98284
63.74	7.13918
63.96	7.37796
64.18	5.66798
64.4	3.60514
64.62	8.57311
64.84	1.61363
65.06	5.87767
65.28	6.006
65.5	2.06029
65.72	5.92142
65.94	8.2068
66.16	3.57082
66.38	5.81173
66.6	5.87206
66.82	12.957
67.04	6.92472
67.26	1.06845
67.48	4.78508
67.7	4.70722
67.92	6.58954
68.14	2.39105
68.36	5.28014
68.58	3.06541
68.8	15.9036
69.02	12.8547
69.24	0.209207
69.46	8.54379
69.68	5.63095
69.9	1.65844
70.12	7.03488
70.34	4.0816
70.56	8.07315
70.78	11.8923
71	3.81708
71.22	5.7554
71.44	0.284953
71.66	0.620873
71.88	4.32105
72.1	10.1993
72.32	10.3949
72.54	2.22441
72.76	9.18126
72.98	0.233573
73.2	3.278
73.42	9.49128
73.64	4.65578
73.86	6.83011
74.08	10.2816
74.3	5.44399
74.52	2.63973
74.74	7.45859
74.96	4.40868
75.18	5.54467
75.4	7.54982
75.62	3.77189
75.84	6.84999
76.06	1.74601
76.28	13.6584
76.5	8.34152
76.72	2.36969
76.94	8.75733
77.16	0.671016
77.38	4.76945
77.6	0.706134
77.82	12.7357
78.04	10.4767
78.26	6.28576
78.48	1.26092
78.7	5.26584
78.92	5.26681
79.14	3.19448
79.36	6.38976
79.58	4.44455
79.8	1.55627
80.02	4.83892
80.24	0.829693
80.46	1.09386
80.68	5.87231
80.9	7.92149
81.12	13.009
81.34	2.08978
81.56	3.02689
81.78	7.17251
82	3.30007
82.22	2.28782
82.44	0.591827
82.66	4.73541
82.88	2.75939
83.1	6.8352
83.32	10.7963
83.54	5.72327
83.76	1.56798
83.98	7.17781
84.2	2.71381
84.42	2.49546
84.64	6.99707
84.86	15.7796
85.08	9.60882
85.3	10.734
85.52	5.6462
85.74	4.86422
85.96	2.93472
86.18	1.1733
86.4	7.5414
86.62	5.68783
86.84	3.99573
87.06	7.17202
87.28	10.2498
87.5	12.4512
87.72	4.81677
87.94	7.04734
88.16	7.11526
88.38	4.43742
88.6	3.49882
88.82	3.29848
89.04	7.4592
89.26	2.61268
89.48	6.32357
89.7	6.12532
89.92	7.27833
