Measurement: Powder, Xray Data XY Processed
Mineral: Prosopite
Rruff sample: R050668
Ideal chemistry: CaAl_2_F_4_(OH)_4_
Locality: Grand Reef mine, Klondyke, Aravaipa District, Graham County, Arizona, USA
Source: University of Arizona Mineral Museum
Description: Light-blue massive coating on quartz
Diffraction sample description: Powder
Cell parameters: a: 6.7054(3) b: 11.1501(8) c: 7.3643(3) alpha: 90. beta: 94.912(5) gamma: 90. volume: 548.58(4) crystal system: monoclinic
x	intensity
5	0
5.22	3.439
5.44	2.429
5.66	4.126
5.88	6.066
6.1	1.613
6.32	5.313
6.54	7.137
6.76	8.133
6.98	0.772
7.2	7.657
7.42	9.216
7.64	7.803
7.86	11.315
8.08	3.637
8.3	10.046
8.52	24.539
8.74	4.993
8.96	4.937
9.18	5.958
9.4	7.05
9.62	6.033
9.84	10.163
10.06	12.661
10.28	6.019
10.5	10.188
10.72	10.655
10.94	7.619
11.16	2.935
11.38	0.601
11.6	0.56
11.82	5.829
12.04	7.165
12.26	11.44
12.48	1.273
12.7	7.298
12.92	1.25
13.14	0.031
13.36	10.128
13.58	3.204
13.8	4.024
14.02	8.981
14.24	4.965
14.46	3.771
14.68	0.8
14.9	1.757
15.12	6.946
15.34	7.233
15.56	15.328
15.78	0.504
16	6.472
16.22	1.539
16.44	3.664
16.66	7.893
16.88	7.991
17.1	2.941
17.32	0.021
17.54	9.943
17.76	1.183
17.98	4.563
18.2	7.548
18.42	4.324
18.64	2.272
18.86	8.883
19.08	7.41
19.3	4.076
19.52	6.718
19.74	10.379
19.96	24.939
20.18	22.017
20.4	515.15
20.62	23.932
20.84	4.263
21.06	3.32
21.28	3.626
21.5	0.153
21.72	6.815
21.94	2.149
22.16	4.77
22.38	3.161
22.6	7.146
22.82	7.161
23.04	3.221
23.26	3.037
23.48	8.012
23.7	4.944
23.92	5.657
24.14	7.52
24.36	20.729
24.58	1.36
24.8	7.26
25.02	4.305
25.24	0.777
25.46	3.878
25.68	6.017
25.9	1.136
26.12	0.229
26.34	4.963
26.56	9.828
26.78	30.608
27	1.638
27.22	1.847
27.44	78.136
27.66	14.051
27.88	4.886
28.1	1.271
28.32	5.146
28.54	2.906
28.76	0.592
28.98	14.178
29.2	98.098
29.42	17.866
29.64	73.395
29.86	18.754
30.08	2.694
30.3	4.735
30.52	4.051
30.74	4.657
30.96	7.058
31.18	45.349
31.4	9.666
31.62	1.353
31.84	4.068
32.06	10.196
32.28	5.656
32.5	0.832
32.72	19.146
32.94	3.074
33.16	4.997
33.38	3.017
33.6	5.099
33.82	0.331
34.04	0.5
34.26	5.388
34.48	13.376
34.7	3.507
34.92	9.53
35.14	0.805
35.36	6.122
35.58	3.03
35.8	3.175
36.02	2.448
36.24	5.469
36.46	3.177
36.68	5.955
36.9	0.515
37.12	2.695
37.34	3.951
37.56	4.7
37.78	26.429
38	16.163
38.22	4.876
38.44	19.321
38.66	9.06
38.88	30.522
39.1	42.552
39.32	11.318
39.54	12.105
39.76	3.985
39.98	4.809
40.2	2.575
40.42	2.433
40.64	104.396
40.86	16.092
41.08	0.208
41.3	5.908
41.52	3.776
41.74	3.861
41.96	5.279
42.18	92.433
42.4	31.508
42.62	8.88
42.84	2.205
43.06	10.945
43.28	9.048
43.5	13.061
43.72	2.093
43.94	4.106
44.16	0.993
44.38	0.579
44.6	17.76
44.82	50.046
45.04	16.326
45.26	3.253
45.48	11.393
45.7	12.527
45.92	1.877
46.14	5.394
46.36	8.526
46.58	54.724
46.8	5.94
47.02	12.849
47.24	2.744
47.46	31.948
47.68	45.483
47.9	4.809
48.12	5.789
48.34	6.543
48.56	11.466
48.78	10.362
49	4.156
49.22	1.937
49.44	2.711
49.66	59.144
49.88	21.045
50.1	7.375
50.32	46.597
50.54	30.073
50.76	6.632
50.98	6.079
51.2	6.38
51.42	0.744
51.64	3.121
51.86	2.663
52.08	1.878
52.3	12.925
52.52	11.046
52.74	2.054
52.96	5.973
53.18	3.726
53.4	3.915
53.62	6.358
53.84	3.299
54.06	3.195
54.28	4.867
54.5	4.748
54.72	5.527
54.94	27.278
55.16	5.107
55.38	12.634
55.6	8.255
55.82	20.69
56.04	7.536
56.26	1.516
56.48	10.428
56.7	18.358
56.92	11.575
57.14	0.948
57.36	6.206
57.58	22.046
57.8	15.99
58.02	0.011
58.24	2.978
58.46	9.632
58.68	4.465
58.9	13.402
59.12	28.582
59.34	2.863
59.56	4.499
59.78	9.475
60	21.672
60.22	4.918
60.44	1.473
60.66	10.993
60.88	24.313
61.1	9.634
61.32	7.025
61.54	8.236
61.76	2.974
61.98	7.374
62.2	9.663
62.42	1.857
62.64	0.233
62.86	10.699
63.08	0.391
63.3	5.466
63.52	7.401
63.74	2.325
63.96	0.898
64.18	0.808
64.4	2.214
64.62	5.554
64.84	8.473
65.06	4.508
65.28	6.773
65.5	15.101
65.72	8.061
65.94	6.086
66.16	3.995
66.38	2.117
66.6	3.382
66.82	7.314
67.04	7.15
67.26	5.975
67.48	1.242
67.7	7.05
67.92	1.31
68.14	11.449
68.36	10.315
68.58	6.285
68.8	5.087
69.02	2.321
69.24	19.483
69.46	7.7
69.68	0.92
69.9	7.125
70.12	3.372
70.34	5.737
70.56	1.108
70.78	11.398
71	6.472
71.22	4.538
71.44	1.41
71.66	1.447
71.88	8.34
72.1	0.797
72.32	4.045
72.54	2.876
72.76	1.491
72.98	8.347
73.2	1.102
73.42	1.942
73.64	17.997
73.86	10.975
74.08	3.026
74.3	16.245
74.52	4.332
74.74	3.437
74.96	1.349
75.18	2.706
75.4	8.974
75.62	11
75.84	5.04
76.06	1.712
76.28	1.601
76.5	1.55
76.72	8.384
76.94	10.725
77.16	6.681
77.38	5.634
77.6	6.755
77.82	0.545
78.04	3.712
78.26	3.71
78.48	0.651
78.7	5.771
78.92	12.689
79.14	4.304
79.36	5.109
79.58	8.072
79.8	0.068
80.02	5.741
80.24	8.518
80.46	4.284
80.68	3.601
80.9	6.702
81.12	1.745
81.34	7.019
81.56	10.319
81.78	1.609
82	3.645
82.22	1.968
82.44	2.237
82.66	1.463
82.88	3.576
83.1	8.378
83.32	4.424
83.54	3.43
83.76	6.4
83.98	7.368
84.2	4.459
84.42	6.335
84.64	7.13
84.86	3.137
85.08	0.632
85.3	1.365
85.52	4.224
85.74	7.099
85.96	3.004
86.18	3.839
86.4	5.646
86.62	10.505
86.84	5.446
87.06	2.396
87.28	0.315
87.5	7.938
87.72	7.933
87.94	8.071
88.16	8.069
88.38	8.177
88.6	1.28
88.82	4.435
89.04	3.626
89.26	2.657
89.48	5.948
89.7	6.209
89.92	8.615
