Measurement: Powder, Xray Data XY Processed
Mineral: Proto-ferro-suenoite
Rruff sample: R061000
Ideal chemistry: [box]Mn^2+^_2_Fe^2+^_5_Si_8_O_22_(OH)_2_
Locality: Yokoneyama, Tochigi, Japan
Source: Michael Scott
Description: Gray prismatic to fibrous associated with pyroxmangite R060999
Diffraction sample description: Powder
Cell parameters: a: 9.439(1) b: 18.289(3) c: 5.354(1) alpha: 90 beta: 90 gamma: 90 volume: 924.2(2) crystal system: orthorhombic
x	intensity
5	0
5.22	22.6137
5.44	20.2851
5.66	32.2544
5.88	12.0628
6.1	34.2524
6.32	8.12048
6.54	9.94427
6.76	18.0117
6.98	15.8193
7.2	14.074
7.42	17.2637
7.64	20.4785
7.86	14.1206
8.08	22.1957
8.3	5.75142
8.52	9.48784
8.74	8.5175
8.96	16.5568
9.18	0.129223
9.4	7.62092
9.62	38.2825
9.84	21.5828
10.06	13.3826
10.28	3.23509
10.5	54.807
10.72	20.5906
10.94	2.19064
11.16	5.0448
11.38	13.9728
11.6	15.0026
11.82	2.52733
12.04	13.8696
12.26	20.8062
12.48	0.674652
12.7	23.2429
12.92	15.3072
13.14	11.7738
13.36	22.5835
13.58	12.7192
13.8	2.60412
14.02	12.4197
14.24	12.4385
14.46	20.2057
14.68	4.70078
14.9	10.6967
15.12	12.0494
15.34	10.2011
15.56	1.96931
15.78	4.16048
16	3.87575
16.22	12.5988
16.44	11.7438
16.66	10.9685
16.88	26.0181
17.1	15.5762
17.32	7.65484
17.54	0.246552
17.76	8.67683
17.98	14.9503
18.2	17.6965
18.42	0.348763
18.64	13.49
18.86	22.837
19.08	1.16492
19.3	15.0949
19.52	14.8975
19.74	12.8968
19.96	31.0083
20.18	1.01387
20.4	9.0904
20.62	6.35042
20.84	3.79095
21.06	11.9747
21.28	45.3991
21.5	1.72033
21.72	23.6803
21.94	7.59668
22.16	20.4462
22.38	16.8839
22.6	16.944
22.82	15.393
23.04	21.2892
23.26	18.3786
23.48	28.1241
23.7	10.5999
23.92	25.8121
24.14	26.8777
24.36	6.70999
24.58	20.0189
24.8	11.2873
25.02	27.1021
25.24	26.0547
25.46	17.3614
25.68	12.0029
25.9	16.8198
26.12	2.52632
26.34	2.51215
26.56	2.09758
26.78	8.33197
27	16.4986
27.22	34.1253
27.44	14.5179
27.66	1.80447
27.88	6.47728
28.1	13.9719
28.32	9.90942
28.54	20.3652
28.76	34.874
28.98	22.8259
29.2	22.7358
29.42	23.6728
29.64	7.76801
29.86	17.1923
30.08	14.1469
30.3	19.1566
30.52	16.0897
30.74	13.0589
30.96	4.43492
31.18	25.2762
31.4	11.6242
31.62	16.4529
31.84	8.52418
32.06	20.4886
32.28	20.9003
32.5	23.0676
32.72	20.8564
32.94	9.72972
33.16	0.123898
33.38	9.24208
33.6	8.23091
33.82	11.477
34.04	12.3049
34.26	22.0578
34.48	18.9735
34.7	4.6923
34.92	15.1489
35.14	50.8347
35.36	29.2587
35.58	10.0753
35.8	20.0561
36.02	10.4081
36.24	17.1155
36.46	22.5868
36.68	2.12191
36.9	9.91716
37.12	19.3776
37.34	15.1981
37.56	4.19986
37.78	15.8278
38	15.6783
38.22	7.96985
38.44	19.2587
38.66	33.8603
38.88	21.4794
39.1	6.62618
39.32	10.2858
39.54	4.85018
39.76	5.5188
39.98	2.99806
40.2	13.5056
40.42	3.22247
40.64	9.63684
40.86	24.3516
41.08	12.951
41.3	19.8395
41.52	14.8365
41.74	21.4002
41.96	14.5522
42.18	1.65075
42.4	6.66626
42.62	2.07513
42.84	19.0105
43.06	19.6436
43.28	21.0019
43.5	2.03262
43.72	16.1349
43.94	5.91103
44.16	25.7617
44.38	12.5952
44.6	22.7274
44.82	21.0937
45.04	8.13337
45.26	2.21228
45.48	10.4305
45.7	18.2757
45.92	12.8992
46.14	14.4418
46.36	28.545
46.58	14.5854
46.8	9.22371
47.02	26.3082
47.24	15.3602
47.46	15.4761
47.68	20.3377
47.9	29.3736
48.12	0.289616
48.34	18.3678
48.56	26.5143
48.78	11.3542
49	18.3143
49.22	18.6876
49.44	14.2301
49.66	20.2032
49.88	12.6636
50.1	5.07021
50.32	13.2911
50.54	12.1229
50.76	25.8767
50.98	16.9565
51.2	26.6685
51.42	20.3488
51.64	6.37468
51.86	12.7189
52.08	12.7246
52.3	17.7242
52.52	18.5074
52.74	24.3946
52.96	24.2704
53.18	15.0946
53.4	12.6588
53.62	12.239
53.84	10.0827
54.06	17.9514
54.28	4.38511
54.5	18.284
54.72	4.45629
54.94	25.3664
55.16	18.7656
55.38	19.6277
55.6	15.6178
55.82	18.7067
56.04	33.4827
56.26	14.3289
56.48	4.04923
56.7	4.43525
56.92	10.6876
57.14	22.4996
57.36	14.2386
57.58	27.2963
57.8	41.2084
58.02	21.0292
58.24	30.4018
58.46	13.8695
58.68	19.1503
58.9	8.94585
59.12	17.2144
59.34	20.7629
59.56	5.35571
59.78	14.3634
60	7.06257
60.22	6.77582
60.44	15.5891
60.66	15.362
60.88	16.1939
61.1	24.1209
61.32	8.71767
61.54	0.761204
61.76	12.9885
61.98	37.7984
62.2	6.4884
62.42	30.8587
62.64	33.0726
62.86	11.7603
63.08	4.87751
63.3	23.9221
63.52	19.0018
63.74	8.79625
63.96	16.7203
64.18	4.79281
64.4	20.9018
64.62	17.0389
64.84	10.1706
65.06	15.7297
65.28	17.0906
65.5	18.5842
65.72	16.742
65.94	16.5161
66.16	0.261925
66.38	7.94369
66.6	20.5242
66.82	19.5274
67.04	25.6395
67.26	20.4342
67.48	8.75278
67.7	22.2768
67.92	15.2748
68.14	6.21464
68.36	31.1909
68.58	44.2234
68.8	15.3464
69.02	0.237942
69.24	14.3165
69.46	10.296
69.68	11.5181
69.9	28.2858
70.12	10.3434
70.34	7.35506
70.56	3.27558
70.78	6.21607
71	18.8567
71.22	24.7796
71.44	8.72832
71.66	14.8267
71.88	26.0805
72.1	15.8635
72.32	18.9534
72.54	18.9982
72.76	24.4683
72.98	14.388
73.2	7.91682
73.42	20.9695
73.64	0.547855
73.86	18.7055
74.08	30.9766
74.3	10.4913
74.52	4.37512
74.74	14.5483
74.96	16.6221
75.18	2.41669
75.4	17.2738
75.62	6.87479
75.84	4.91523
76.06	1.35719
76.28	2.43957
76.5	1.46243
76.72	10.9371
76.94	14.0991
77.16	5.65043
77.38	4.88885
77.6	24.0099
77.82	14.971
78.04	7.97907
78.26	0.0718
78.48	15.6907
78.7	9.41082
78.92	8.96552
79.14	5.80622
79.36	10.971
79.58	11.2339
79.8	1.12016
80.02	5.18137
80.24	0.280254
80.46	8.23607
80.68	8.34387
80.9	16.5559
81.12	4.79511
81.34	13.1193
81.56	3.97398
81.78	15.8428
82	20.4435
82.22	27.5152
82.44	7.36441
82.66	15.6674
82.88	14.9782
83.1	4.85476
83.32	12.7211
83.54	16.1482
83.76	6.8738
83.98	4.67419
84.2	14.2617
84.42	31.4097
84.64	6.50154
84.86	15.994
85.08	13.252
85.3	5.43121
85.52	35.2802
85.74	26.1097
85.96	20.8144
86.18	24.3141
86.4	15.4771
86.62	19.6563
86.84	22.4724
87.06	25.2843
87.28	10.3495
87.5	20.6538
87.72	13.2563
87.94	26.8949
88.16	23.2535
88.38	18.9292
88.6	22.3801
88.82	6.2461
89.04	3.04673
89.26	4.94284
89.48	29.109
89.7	8.90727
89.92	0.008461
