Measurement: Powder, Xray Data XY Processed
Mineral: Proto-ferro-anthophyllite
Rruff sample: R060053
Ideal chemistry: Fe^2+^_7_Si_8_O_22_(OH)_2_
Locality: Nyppio mine, near Utsonomiya, Japan
Source: Marcus Origlieri
Description: Sprays of green prismatic crystals
Diffraction sample description: Powder
Measured chemistry: (Fe^2+^_0.51_Mn_0.27_Mg_0.22_)_7_Si_8_O_22_(OH)_2_
Cell parameters: a: 9.4475(5) b: 18.284(4) c: 5.3474(8) alpha: 90 beta: 90 gamma: 90 volume: 923.7(2) crystal system: orthorhombic
x	intensity
5	0
5.22	10.089
5.44	23.485
5.66	16.069
5.88	9.226
6.1	4.753
6.32	11.923
6.54	10.505
6.76	6.858
6.98	4.438
7.2	13.494
7.42	20.903
7.64	0.964
7.86	14.871
8.08	8.302
8.3	10.557
8.52	14.712
8.74	14.078
8.96	2.222
9.18	17.164
9.4	20.424
9.62	26.194
9.84	19.756
10.06	13.408
10.28	0.901
10.5	51.457
10.72	11.822
10.94	8.89
11.16	2.869
11.38	9.219
11.6	5.569
11.82	0.802
12.04	0.28
12.26	13.585
12.48	28.125
12.7	0.935
12.92	10.376
13.14	27.856
13.36	7.504
13.58	18.056
13.8	10.108
14.02	2.883
14.24	1.262
14.46	8.824
14.68	15.713
14.9	6.517
15.12	11.949
15.34	1.912
15.56	9.679
15.78	16.56
16	6.4
16.22	18.066
16.44	14.649
16.66	22.574
16.88	17.799
17.1	8.987
17.32	15.484
17.54	9.931
17.76	2.523
17.98	23.164
18.2	4.831
18.42	0.859
18.64	10.414
18.86	4.729
19.08	15.389
19.3	21.8
19.52	17.009
19.74	24.011
19.96	19.067
20.18	8.779
20.4	5.796
20.62	16.339
20.84	19.685
21.06	4.299
21.28	19.893
21.5	29.138
21.72	28.219
21.94	22.901
22.16	17.219
22.38	20.195
22.6	14.681
22.82	14.86
23.04	20.016
23.26	16.472
23.48	11.869
23.7	12.502
23.92	3.45
24.14	19.328
24.36	28.579
24.58	35.086
24.8	5.797
25.02	18.848
25.24	18.271
25.46	5.736
25.68	4.287
25.9	5.892
26.12	17.559
26.34	16.752
26.56	6.51
26.78	7.891
27	32.779
27.22	43.151
27.44	13.994
27.66	4.792
27.88	10.565
28.1	11.757
28.32	3.273
28.54	36.563
28.76	81.418
28.98	40.918
29.2	23.278
29.42	0.455
29.64	28.35
29.86	11.238
30.08	0.867
30.3	3.154
30.52	3.258
30.74	18.474
30.96	16.173
31.18	41.182
31.4	15.74
31.62	11.217
31.84	15.647
32.06	35.92
32.28	35.024
32.5	6.975
32.72	8.796
32.94	7.771
33.16	11.889
33.38	0.471
33.6	19.306
33.82	3.448
34.04	11.221
34.26	14.527
34.48	12.397
34.7	5.383
34.92	12.206
35.14	50.564
35.36	48.649
35.58	0.686
35.8	20.39
36.02	10.427
36.24	19.582
36.46	24.109
36.68	9.164
36.9	2.057
37.12	8.254
37.34	17.577
37.56	15.518
37.78	22.301
38	21.768
38.22	22.831
38.44	25.455
38.66	28.359
38.88	27.235
39.1	16.66
39.32	6.806
39.54	4.92
39.76	25.935
39.98	18.064
40.2	9.206
40.42	11.182
40.64	16.894
40.86	10.308
41.08	5.798
41.3	13.214
41.52	2.801
41.74	12.237
41.96	21.118
42.18	19.502
42.4	17.438
42.62	7.048
42.84	17.716
43.06	20.425
43.28	2.837
43.5	24.268
43.72	6.797
43.94	6.513
44.16	13.291
44.38	15.114
44.6	4.59
44.82	43.403
45.04	20.199
45.26	3.295
45.48	14.992
45.7	6.277
45.92	15.783
46.14	5.407
46.36	14.578
46.58	2.096
46.8	4.316
47.02	21.882
47.24	15.748
47.46	12.123
47.68	7.853
47.9	16.231
48.12	15.851
48.34	6.633
48.56	11.132
48.78	33.488
49	22.966
49.22	10.674
49.44	20.225
49.66	5.076
49.88	27.775
50.1	17.683
50.32	5.552
50.54	5.318
50.76	33.131
50.98	1.477
51.2	24.167
51.42	15.906
51.64	6.976
51.86	22.585
52.08	29.039
52.3	16.343
52.52	10.579
52.74	5.004
52.96	4.36
53.18	1.009
53.4	14.497
53.62	19.047
53.84	14.457
54.06	23.24
54.28	15.019
54.5	13.075
54.72	24.844
54.94	19.617
55.16	1.242
55.38	10.595
55.6	31.997
55.82	24.136
56.04	20.725
56.26	25.184
56.48	14.881
56.7	44.447
56.92	15.5
57.14	9.23
57.36	29.242
57.58	0.269
57.8	10.179
58.02	6.946
58.24	30.076
58.46	7.245
58.68	14.132
58.9	10.944
59.12	8.444
59.34	16.684
59.56	25.149
59.78	20.742
60	9.979
60.22	26.333
60.44	35.615
60.66	11.353
60.88	20.934
61.1	16.186
61.32	13.498
61.54	29.128
61.76	10.499
61.98	1.009
62.2	19.247
62.42	11.69
62.64	9.9
62.86	10.5
63.08	21.653
63.3	7.327
63.52	19.171
63.74	15.399
63.96	2.459
64.18	21.783
64.4	11.477
64.62	10.883
64.84	8.99
65.06	30.183
65.28	22.508
65.5	8.373
65.72	29.039
65.94	17.966
66.16	26.744
66.38	17.133
66.6	7.455
66.82	5.535
67.04	14.417
67.26	13.212
67.48	24.125
67.7	24.269
67.92	3.029
68.14	5.908
68.36	14.924
68.58	19.464
68.8	13.58
69.02	17.148
69.24	17.251
69.46	17.966
69.68	13.676
69.9	21.576
70.12	2.84
70.34	27.232
70.56	10.457
70.78	15.628
71	8.188
71.22	9.378
71.44	18.742
71.66	0.216
71.88	2.077
72.1	32.168
72.32	9.638
72.54	25.406
72.76	24.186
72.98	15.176
73.2	22.745
73.42	26.218
73.64	22.87
73.86	34.041
74.08	38.786
74.3	22.799
74.52	7.682
74.74	12.12
74.96	9.614
75.18	13.302
75.4	28.489
75.62	22.89
75.84	0.739
76.06	23.765
76.28	9.946
76.5	16.261
76.72	7.773
76.94	23.086
77.16	11.811
77.38	9.428
77.6	12.286
77.82	24.713
78.04	4.957
78.26	31.928
78.48	16.511
78.7	10.626
78.92	19.432
79.14	9.854
79.36	28.503
79.58	33.418
79.8	25.659
80.02	0.976
80.24	22.784
80.46	16.536
80.68	21.473
80.9	5.797
81.12	12.405
81.34	13.734
81.56	17.789
81.78	0.143
82	13.735
82.22	4.754
82.44	11.51
82.66	13.498
82.88	19.5
83.1	6.433
83.32	38.029
83.54	19.858
83.76	13.99
83.98	18.205
84.2	14.493
84.42	8.005
84.64	27
84.86	13.566
85.08	14.61
85.3	0.422
85.52	11.055
85.74	0.585
85.96	21.355
86.18	8.42
86.4	19.38
86.62	32.556
86.84	27.206
87.06	21.721
87.28	12.907
87.5	18.744
87.72	11.459
87.94	28.616
88.16	9.349
88.38	16.571
88.6	4.767
88.82	16.59
89.04	14.778
89.26	13.088
89.48	18.591
89.7	14.518
89.92	29.655
