Measurement: Powder, Xray Data XY Processed
Mineral: Pseudomalachite
Rruff sample: R050264
Ideal chemistry: Cu^2+^_5_(P^5+^O_4_)_2_(OH)_4_
Locality: Cerro Morita, 27 km southwest of Agua Prieta, Sonora, Mexico
Source: Marcus Origlieri
Description: Blue powdery crust
Diffraction sample description: Powder, using Mo radiation
Measured chemistry: (Cu_4.91_Al_0.04_[box]_0.03_Ca_0.02_)_Σ=5_((P_1.98_S_0.02_)_Σ=1_O_4_)_2_(OH)_4_ ; = light phase
x	intensity
6.44	0
6.52	5.76526
6.6	0.056302
6.68	14.027
6.76	20.1624
6.84	36.4329
6.92	51.8549
7	105.683
7.08	151.568
7.16	169.006
7.24	149.022
7.32	105.983
7.4	41.6558
7.48	11.6963
7.56	12.4495
7.64	3.23124
7.72	0.876947
7.8	0.685577
7.88	0.35243
7.96	0.643982
8.04	3.49051
8.12	1.81172
8.2	6.33786
8.28	33.0537
8.36	70.1022
8.44	116.54
8.52	124.118
8.6	106.173
8.68	79.6412
8.76	80.6128
8.84	201.157
8.92	512.438
9	914.657
9.08	1148
9.16	1033.93
9.24	640.771
9.32	290.131
9.4	138.461
9.48	116.316
9.56	112.602
9.64	88.1478
9.72	55.1808
9.8	11.9769
9.88	0.922493
9.96	1.25953
10.04	1.3201
10.12	0.232001
10.2	1.81863
10.28	15.925
10.36	34.9064
10.44	47.5021
10.52	41.236
10.6	39.2626
10.68	11.8336
10.76	2.21554
10.84	2.8622
10.92	2.05386
11	4.16038
11.08	2.2234
11.16	1.82423
11.24	4.71878
11.32	23.9615
11.4	66.3714
11.48	160.044
11.56	308.359
11.64	477.144
11.72	571.807
11.8	568.308
11.88	429.73
11.96	304.062
12.04	231.557
12.12	229.341
12.2	283.247
12.28	306.262
12.36	253.365
12.44	157.849
12.52	88.9337
12.6	43.7241
12.68	17.2828
12.76	37.6056
12.84	131.37
12.92	310.862
13	467.975
13.08	549.546
13.16	626.846
13.24	688.757
13.32	648.968
13.4	551.819
13.48	484.033
13.56	536.281
13.64	683.358
13.72	767.457
13.8	734.825
13.88	599.346
13.96	420.911
14.04	259.558
14.12	169.132
14.2	155.435
14.28	194.875
14.36	199.797
14.44	158.93
14.52	105.172
14.6	64.0586
14.68	56.4549
14.76	87.8107
14.84	161.73
14.92	211.176
15	205.117
15.08	154.064
15.16	83.4511
15.24	18.9413
15.32	1.05422
15.4	3.16334
15.48	5.26546
15.56	0.462906
15.64	4.37059
15.72	2.65221
15.8	1.062
15.88	12.9885
15.96	10.2561
16.04	1.68151
16.12	2.39602
16.2	1.76776
16.28	11.57
16.36	79.5387
16.44	161.623
16.52	286.825
16.6	478.471
16.68	686.256
16.76	762.937
16.84	737.139
16.92	642.645
17	559.882
17.08	432.112
17.16	282.734
17.24	162.321
17.32	135.783
17.4	213.144
17.48	281.436
17.56	286.707
17.64	203.423
17.72	112.129
17.8	62.8047
17.88	61.8314
17.96	113.243
18.04	231.226
18.12	392.035
18.2	470.245
18.28	413.016
18.36	320.528
18.44	284.725
18.52	268.255
18.6	198.231
18.68	107.736
18.76	38.005
18.84	3.95673
18.92	1.20439
19	24.7697
19.08	76.4059
19.16	146.441
19.24	221.668
19.32	281.871
19.4	301.586
19.48	258.322
19.56	155.81
19.64	67.0258
19.72	0.221729
19.8	2.15749
19.88	0.6566
19.96	0.896625
20.04	0.665324
20.12	22.9995
20.2	35.7922
20.28	62.4686
20.36	61.9158
20.44	57.5691
20.52	47.8386
20.6	45.4619
20.68	42.0755
20.76	44.3629
20.84	50.3446
20.92	29.5636
21	10.3886
21.08	2.68225
21.16	0.138494
21.24	0.87111
21.32	1.59578
21.4	34.0646
21.48	73.4544
21.56	94.5903
21.64	70.301
21.72	44.5601
21.8	19.9023
21.88	32.2677
21.96	61.5704
22.04	67.4916
22.12	36.2087
22.2	2.88457
22.28	3.00605
22.36	0.375328
22.44	3.4488
22.52	5.56497
22.6	30.5207
22.68	38.1396
22.76	47.3312
22.84	54.3404
22.92	76.2798
23	131.118
23.08	188.795
23.16	219.536
23.24	237.479
23.32	270.914
23.4	328.884
23.48	366.101
23.56	338.327
23.64	269.418
23.72	179.745
23.8	109.255
23.88	79.8817
23.96	64.0393
24.04	70.1667
24.12	71.4949
24.2	61.4694
24.28	65.2171
24.36	75.9411
24.44	98.7934
24.52	85.0412
24.6	50.4285
24.68	11.7352
24.76	0.718815
24.84	2.18643
24.92	2.17835
25	0.130641
25.08	29.9169
25.16	31.5134
25.24	18.7939
25.32	0.659211
25.4	4.59998
25.48	35.3901
25.56	54.959
25.64	62.9925
25.72	58.0992
25.8	53.9068
25.88	51.5788
25.96	65.0871
26.04	89.2457
26.12	124.85
26.2	136.913
26.28	92.665
26.36	47.0153
26.44	0.274213
26.52	3.95788
26.6	46.3978
26.68	112.191
26.76	129.852
26.84	100.623
26.92	51.8124
27	1.89651
27.08	1.12492
27.16	9.67122
27.24	64.0831
27.32	102.129
27.4	125.323
27.48	88.7566
27.56	47.1083
27.64	8.78606
27.72	7.45447
27.8	20.7939
27.88	35.2001
27.96	36.4649
28.04	20.2637
28.12	15.6796
28.2	2.92602
28.28	1.01108
28.36	1.53653
28.44	1.00359
28.52	1.65953
28.6	27.9191
28.68	67.138
28.76	101.416
28.84	135.567
28.92	117.871
29	88.6302
29.08	49.5191
29.16	35.158
29.24	38.3874
29.32	46.0074
29.4	45.8842
29.48	71.1849
29.56	64.1075
29.64	31.0076
29.72	5.17469
29.8	12.6233
29.88	9.19771
29.96	25.4715
30.04	28.9622
30.12	39.5638
30.2	47.2958
30.28	52.0404
30.36	109.707
30.44	131.117
30.52	108.976
30.6	108.869
30.68	100.228
30.76	83.8194
30.84	80.4183
30.92	108.416
31	109.946
31.08	137.948
31.16	154.518
31.24	151.175
31.32	130.076
31.4	96.352
31.48	45.0303
31.56	19.6974
31.64	7.40379
31.72	8.2259
31.8	10.4028
31.88	15.2624
31.96	18.2805
32.04	3.22936
32.12	2.8179
32.2	8.21882
32.28	0.769659
32.36	0.894903
32.44	0.731999
32.52	1.0063
32.6	18.2417
32.68	24.0161
32.76	18.184
32.84	17.7578
32.92	15.6306
33	0.521732
33.08	10.043
33.16	0.548381
33.24	7.47821
33.32	10.127
33.4	3.1277
33.48	17.2762
33.56	17.4051
33.64	39.1905
33.72	34.0161
33.8	47.0039
33.88	50.6513
33.96	47.0777
34.04	49.5335
34.12	45.5533
34.2	25.2666
34.28	23.5159
34.36	46.0925
34.44	78.8554
34.52	97.5819
34.6	82.4769
34.68	62.3737
34.76	43.5453
34.84	17.5251
34.92	10.0995
35	0.546405
35.08	9.02529
35.16	3.49122
