Measurement: Powder, Xray Data XY Processed
Mineral: Pseudomalachite
Rruff sample: R050597
Ideal chemistry: Cu^2+^_5_(P^5+^O_4_)_2_(OH)_4_
Locality: Cerro Negro mine, Carrizalillo, Chile
Source: William W. Pinch
Description: Dark-green tabular crystals associated with chalcosiderite, R060007
Diffraction sample description: Single crystal, powder profile is calculated
Cell parameters: a: 4.473(3) b: 5.742(3) c: 16.968(11) alpha: 90 beta: 90.97(4) gamma: 90 volume: 435.76(16) crystal system: monoclinic
x	intensity
5	0
5.22	0
5.44	0
5.66	0
5.88	0
6.1	0
6.32	0
6.54	0
6.76	0
6.98	0
7.2	0
7.42	0
7.64	0
7.86	0
8.08	0
8.3	0
8.52	0
8.74	0
8.96	0
9.18	0
9.4	0
9.62	0
9.84	0
10.06	0
10.28	0
10.5	0.133
10.72	0
10.94	0
11.16	0
11.38	0
11.6	0
11.82	0
12.04	0
12.26	0
12.48	0
12.7	0
12.92	0
13.14	0
13.36	0
13.58	0
13.8	0
14.02	0
14.24	0
14.46	0
14.68	0
14.9	0
15.12	0
15.34	0
15.56	0
15.78	0
16	0
16.22	0.001
16.44	0
16.66	0
16.88	0
17.1	0
17.32	0
17.54	0
17.76	0
17.98	0
18.2	0
18.42	0
18.64	13.922
18.86	0
19.08	0
19.3	0
19.52	0
19.74	0.354
19.96	1.357
20.18	0
20.4	0
20.62	0
20.84	0.028
21.06	0.026
21.28	0
21.5	0
21.72	0
21.94	0.001
22.16	0.027
22.38	0.136
22.6	0.06
22.82	0
23.04	0
23.26	0
23.48	0
23.7	0
23.92	0
24.14	0
24.36	0
24.58	0
24.8	0
25.02	0
25.24	0.056
25.46	0
25.68	17.753
25.9	4.32
26.12	1.122
26.34	0
26.56	0
26.78	0
27	0
27.22	4.128
27.44	0.13
27.66	0
27.88	0
28.1	0
28.32	0
28.54	0
28.76	29.212
28.98	0
29.2	8.617
29.42	0.018
29.64	6.066
29.86	0
30.08	11.978
30.3	0
30.52	2.903
30.74	0.176
30.96	0
31.18	3.323
31.4	0
31.62	7.306
31.84	0
32.06	0
32.28	0
32.5	0
32.72	0.451
32.94	10.073
33.16	0.366
33.38	0.041
33.6	0
33.82	0
34.04	0
34.26	0
34.48	0
34.7	0
34.92	0.015
35.14	1.079
35.36	1.203
35.58	0
35.8	0
36.02	0
36.24	0
36.46	14.34
36.68	0.003
36.9	2.494
37.12	3.542
37.34	13.308
37.56	4.367
37.78	4.578
38	0.645
38.22	0
38.44	0
38.66	7.612
38.88	5.44
39.1	0
39.32	0
39.54	0
39.76	0
39.98	0
40.2	0.101
40.42	8.137
40.64	1.52
40.86	0.633
41.08	0.403
41.3	0.981
41.52	0.003
41.74	0
41.96	0.096
42.18	0
42.4	0
42.62	3.562
42.84	0.088
43.06	0.006
43.28	2.853
43.5	0.26
43.72	0.004
43.94	0.04
44.16	0
44.38	0
44.6	0.408
44.82	0.01
45.04	3.529
45.26	0.092
45.48	2.949
45.7	1.007
45.92	0.715
46.14	0.615
46.36	0.951
46.58	0.261
46.8	1.283
47.02	0.073
47.24	0.074
47.46	0
47.68	0.196
47.9	0.404
48.12	0
48.34	0.465
48.56	0.001
48.78	0.515
49	0.006
49.22	1.395
49.44	0.012
49.66	0
49.88	0.05
50.1	0
50.32	1.215
50.54	0.004
50.76	0
50.98	2.113
51.2	0.821
51.42	0
51.64	1.941
51.86	2.204
52.08	0.548
52.3	0.923
52.52	1.125
52.74	1.329
52.96	5.486
53.18	1.264
53.4	1.384
53.62	0.069
53.84	1.035
54.06	0.001
54.28	0.812
54.5	0.665
54.72	1.006
54.94	0.312
55.16	1.636
55.38	0.001
55.6	0.001
55.82	0
56.04	0
56.26	0.017
56.48	0.655
56.7	2.067
56.92	1.051
57.14	0
57.36	0
57.58	0.288
57.8	2.321
58.02	3.95
58.24	0.14
58.46	0.464
58.68	0.612
58.9	1.633
59.12	0.231
59.34	4.786
59.56	0.449
59.78	0.006
60	0
60.22	0.177
60.44	0.002
60.66	3.557
60.88	0.495
61.1	0.014
61.32	0
61.54	0.017
61.76	1.391
61.98	0.072
62.2	1.869
62.42	1.702
62.64	0.013
62.86	0.101
63.08	0.161
63.3	0.043
63.52	0.303
63.74	0.41
63.96	0.635
64.18	0.866
64.4	0.132
64.62	0.002
64.84	0.327
65.06	0.463
65.28	3.953
65.5	0.816
65.72	1.476
65.94	2.422
66.16	1.245
66.38	0.19
66.6	0.34
66.82	0.069
67.04	1.364
67.26	2.978
67.48	0.397
67.7	2.184
67.92	1.434
68.14	0.01
68.36	0.051
68.58	1.003
68.8	0.784
69.02	0.419
69.24	0.746
69.46	0.642
69.68	0.912
69.9	0.329
70.12	2.475
70.34	0.745
70.56	0.114
70.78	3.468
71	2.64
71.22	0.472
71.44	1.01
71.66	0.362
71.88	0.014
72.1	0.961
72.32	1.119
72.54	0.465
72.76	0.742
72.98	0.648
73.2	0.222
73.42	0.033
73.64	0.034
73.86	0.02
74.08	0.008
74.3	0.003
74.52	0.003
74.74	0.308
74.96	0.566
75.18	0.211
75.4	0
75.62	0.014
75.84	0.721
76.06	0.375
76.28	0.02
76.5	0.004
76.72	0.248
76.94	0.169
77.16	0.158
77.38	0.122
77.6	0.163
77.82	0.168
78.04	0.034
78.26	0.005
78.48	0.064
78.7	1.175
78.92	0.658
79.14	0.313
79.36	0.381
79.58	0.344
79.8	0.305
80.02	0.576
80.24	0.174
80.46	0.165
80.68	0.126
80.9	0.225
81.12	0.334
81.34	0.079
81.56	0.287
81.78	0.108
82	0.295
82.22	0.198
82.44	1.2
82.66	0.376
82.88	0.085
83.1	0.15
83.32	0.047
83.54	0.058
83.76	0.261
83.98	0.193
84.2	0.109
84.42	0.085
84.64	0.081
84.86	0.721
85.08	0.473
85.3	0.049
85.52	0.325
85.74	0.127
85.96	0.304
86.18	0.139
86.4	0.268
86.62	0.113
86.84	0
87.06	0.545
87.28	0.406
87.5	0.204
87.72	0.077
87.94	0.724
88.16	0.584
88.38	0.203
88.6	0.214
88.82	0.097
89.04	0.201
89.26	0.42
89.48	0.15
89.7	0.136
89.92	0.157
