Measurement: Powder, Xray Data XY Processed
Mineral: Pyrargyrite
Rruff sample: R050318
Ideal chemistry: Ag^1+^_3_Sb^3+^S^2-^_3_
Locality: unknown
Source: Eugene Schlepp
Description: Black prismatic crystal
Diffraction sample description: Powder
Measured chemistry: Ag_3.00_Sb_1.00_S_3.00_
Cell parameters: a: 11.043(1) b: 11.043(1) c: 8.712(2) alpha: 90 beta: 90 gamma: 120 volume: 920.0(0) crystal system: hexagonal
x	intensity
5	0
5.22	3.59892
5.44	0.155839
5.66	7.02157
5.88	9.06933
6.1	5.27082
6.32	1.25531
6.54	4.18022
6.76	3.23333
6.98	7.3224
7.2	7.47028
7.42	1.61478
7.64	8.76149
7.86	6.95875
8.08	3.89166
8.3	1.84912
8.52	4.87122
8.74	3.88657
8.96	1.92527
9.18	2.03196
9.4	7.96997
9.62	7.03035
9.84	0.020584
10.06	1.19259
10.28	0.791966
10.5	1.27718
10.72	3.24575
10.94	5.31665
11.16	4.35238
11.38	0.468795
11.6	4.36468
11.82	3.45325
12.04	2.39456
12.26	3.49502
12.48	2.35385
12.7	4.28856
12.92	11.425
13.14	7.47473
13.36	3.48636
13.58	5.48962
13.8	3.39823
14.02	2.50153
14.24	1.66472
14.46	5.66466
14.68	2.51194
14.9	2.49451
15.12	0.436631
15.34	0.228033
15.56	5.36985
15.78	1.27056
16	5.31772
16.22	5.23443
16.44	2.07988
16.66	2.17454
16.88	5.71682
17.1	4.6218
17.32	3.60339
17.54	4.5235
17.76	5.59216
17.98	0.305667
18.2	2.29885
18.42	0.202638
18.64	5.35325
18.86	4.47011
19.08	7.47287
19.3	8.59482
19.52	3.76027
19.74	3.71747
19.96	6.87981
20.18	4.91651
20.4	5.987
20.62	1.85949
20.84	1.74378
21.06	0.669966
21.28	4.17999
21.5	0.972444
21.72	0.240592
21.94	4.55755
22.16	5.61512
22.38	6.51246
22.6	6.40868
22.82	9.35354
23.04	2.35757
23.26	3.50476
23.48	4.61959
23.7	6.73358
23.92	7.84866
24.14	4.96585
24.36	4.97566
24.58	6.70732
24.8	8.36037
25.02	0.264964
25.24	0.950259
25.46	4.62407
25.68	8.14396
25.9	4.68592
26.12	4.38937
26.34	8.18063
26.56	15.7189
26.78	43.2581
27	14.0578
27.22	10.857
27.44	1.69132
27.66	15.791
27.88	35.9692
28.1	36.0869
28.32	9.5165
28.54	6.5095
28.76	2.72389
28.98	3.02534
29.2	10.4419
29.42	2.8412
29.64	3.15353
29.86	4.23789
30.08	1.2381
30.3	0.893321
30.52	3.28941
30.74	5.89706
30.96	5.65766
31.18	7.36846
31.4	5.23996
31.62	2.91901
31.84	9.75445
32.06	16.9245
32.28	67.8244
32.5	23.8891
32.72	2.20292
32.94	0.833914
33.16	4.23333
33.38	8.2204
33.6	2.14096
33.82	3.06574
34.04	2.88478
34.26	4.69552
34.48	8.16993
34.7	10.9825
34.92	35.1864
35.14	17.9589
35.36	40.8571
35.58	20.059
35.8	4.51335
36.02	2.91842
36.24	1.28638
36.46	2.65046
36.68	3.04218
36.9	1.53533
37.12	2.85788
37.34	8.8901
37.56	2.50283
37.78	3.7276
38	1.67995
38.22	3.74727
38.44	0.781185
38.66	4.77913
38.88	3.77297
39.1	4.71532
39.32	2.79418
39.54	0.026907
39.76	14.8023
39.98	11.4661
40.2	1.58859
40.42	6.60666
40.64	5.57456
40.86	7.43764
41.08	2.45657
41.3	2.37721
41.52	3.23595
41.74	0.93855
41.96	4.62358
42.18	6.50347
42.4	8.38002
42.62	16.1312
42.84	4.03589
43.06	12.3358
43.28	10.6787
43.5	7.59029
43.72	1.72142
43.94	2.0279
44.16	3.00577
44.38	5.94919
44.6	3.83429
44.82	0.245352
45.04	1.52367
45.26	0.257033
45.48	0.806615
45.7	3.37528
45.92	3.50863
46.14	7.40902
46.36	15.1792
46.58	5.47339
46.8	2.88229
47.02	6.03095
47.24	2.31247
47.46	5.40833
47.68	0.520004
47.9	5.59459
48.12	2.6173
48.34	4.45073
48.56	4.38223
48.78	16.5599
49	10.3203
49.22	7.13452
49.44	6.06915
49.66	11.9438
49.88	8.98941
50.1	2.96937
50.32	1.91999
50.54	3.17729
50.76	4.12909
50.98	2.19219
51.2	2.00046
51.42	1.20955
51.64	7.13562
51.86	6.1898
52.08	9.25596
52.3	14.8254
52.52	1.99638
52.74	2.37869
52.96	2.45053
53.18	3.56462
53.4	0.359904
53.62	2.69313
53.84	4.5272
54.06	8.53599
54.28	8.55107
54.5	16.6374
54.72	6.39647
54.94	7.35383
55.16	6.9394
55.38	8.22384
55.6	2.44643
55.82	2.478
56.04	1.55699
56.26	2.55673
56.48	0.536734
56.7	1.52773
56.92	4.24843
57.14	10.1389
57.36	12.2199
57.58	2.24188
57.8	9.92989
58.02	9.86034
58.24	5.93806
58.46	0.885043
58.68	4.11565
58.9	9.10623
59.12	4.19344
59.34	5.21829
59.56	2.04219
59.78	11.0508
60	5.06375
60.22	2.23313
60.44	6.96648
60.66	12.1357
60.88	2.05485
61.1	3.4495
61.32	0.577094
61.54	1.61898
61.76	0.791115
61.98	2.94634
62.2	0.014667
62.42	1.07066
62.64	7.99783
62.86	4.98336
63.08	6.9355
63.3	3.95247
63.52	1.68241
63.74	4.91276
63.96	6.98577
64.18	3.10639
64.4	7.24443
64.62	4.27405
64.84	3.25102
65.06	11.3265
65.28	3.32416
65.5	2.41754
65.72	1.38329
65.94	1.33134
66.16	5.04874
66.38	2.91433
66.6	2.62706
66.82	0.489547
67.04	9.42407
67.26	3.36875
67.48	4.42571
67.7	9.43769
67.92	7.34703
68.14	1.33245
68.36	1.39975
68.58	3.58653
68.8	0.934123
69.02	6.09114
69.24	2.28079
69.46	2.37961
69.68	3.71729
69.9	6.6274
70.12	4.65031
70.34	6.69828
70.56	5.72935
70.78	1.30886
71	5.52528
71.22	3.32181
71.44	4.29138
71.66	3.13457
71.88	0.020186
72.1	6.00432
72.32	0.27753
72.54	3.3184
72.76	0.418123
72.98	4.47926
73.2	0.566099
73.42	0.188466
73.64	2.82335
73.86	0.181085
74.08	1.8357
74.3	0.161308
74.52	1.83329
74.74	3.71627
74.96	2.7827
75.18	4.62638
75.4	2.68247
75.62	6.75236
75.84	2.61927
76.06	3.54364
76.28	2.6196
76.5	0.283495
76.72	2.84241
76.94	5.82114
77.16	1.67155
77.38	0.412894
77.6	2.71226
77.82	1.60803
78.04	0.528345
78.26	1.5693
78.48	3.55207
78.7	7.55384
78.92	3.47841
79.14	0.405018
79.36	1.67259
79.58	5.33333
79.8	0.656673
80.02	0.350052
80.24	6.3252
80.46	7.28126
80.68	7.18435
80.9	1.25291
81.12	3.17408
81.34	3.32248
81.56	8.45411
81.78	2.47658
82	8.46853
82.22	3.45132
82.44	0.541194
82.66	0.472575
82.88	6.56462
83.1	9.55232
83.32	4.44009
83.54	4.53756
83.76	4.33388
83.98	3.08711
84.2	8.19508
84.42	3.2237
84.64	7.21036
84.86	2.10382
85.08	0.112051
85.3	0.077882
85.52	9.13144
85.74	2.27649
85.96	2.269
86.18	1.32975
86.4	2.36456
86.62	2.19891
86.84	2.23565
87.06	1.29421
87.28	2.31328
87.5	1.43975
87.72	2.45839
87.94	7.55844
88.16	6.57169
88.38	5.6116
88.6	5.69903
88.82	4.82712
89.04	3.98104
89.26	0.852746
89.48	4.27014
89.7	4.21194
89.92	4.21926
