Measurement: Powder, Xray Data XY Processed
Mineral: Pyrite
Rruff sample: R050070
Ideal chemistry: Fe^2+^(S_2_)^2-^
Locality: Mina San Jose de Huanzala, Minero de Huallanca District, Department de Huanuco, Peru
Source: Rock Currier
Description: Brass-yellow metallic cube
Diffraction sample description: Powder
Measured chemistry: Fe_1.00_S_2.00_
Cell parameters: a: 5.41752(9) b: 5.41752(9) c: 5.41752(9) alpha: 90. beta: 90. gamma: 90. volume: 159.001(8) crystal system: cubic
x	intensity
5	0
5.22	8.904
5.44	26.448
5.66	11.049
5.88	14.724
6.1	12.541
6.32	15.696
6.54	15.531
6.76	24.196
6.98	16.452
7.2	15.857
7.42	14.037
7.64	14.969
7.86	7.962
8.08	9.696
8.3	22.567
8.52	18.256
8.74	20.869
8.96	17.504
9.18	2.145
9.4	16.486
9.62	5.425
9.84	13.847
10.06	15.392
10.28	47.143
10.5	3.039
10.72	13.471
10.94	1.216
11.16	21.143
11.38	19.949
11.6	1.893
11.82	8.976
12.04	24.999
12.26	18.222
12.48	19.478
12.7	16.239
12.92	10.413
13.14	22.61
13.36	15.687
13.58	13.542
13.8	10.839
14.02	19.358
14.24	3.243
14.46	27.004
14.68	5.507
14.9	18.961
15.12	0.007
15.34	20.232
15.56	28.59
15.78	5.138
16	8.753
16.22	10.464
16.44	5.74
16.66	18.576
16.88	17.594
17.1	15.481
17.32	10.474
17.54	13.228
17.76	13.714
17.98	5.375
18.2	15.096
18.42	25.241
18.64	23.169
18.86	18.914
19.08	15.379
19.3	8.94
19.52	19.563
19.74	49.061
19.96	3.796
20.18	17.499
20.4	22.326
20.62	26.217
20.84	7.946
21.06	12.006
21.28	20.663
21.5	21.251
21.72	8.441
21.94	13.117
22.16	16.551
22.38	15.43
22.6	11.294
22.82	3.062
23.04	5.59
23.26	7.234
23.48	1.351
23.7	18.59
23.92	24.136
24.14	20.594
24.36	18.274
24.58	17.11
24.8	12.609
25.02	20.414
25.24	6.239
25.46	9.35
25.68	14.25
25.9	14.827
26.12	11.606
26.34	31.711
26.56	1.549
26.78	15.425
27	23.415
27.22	14.518
27.44	16.413
27.66	16.083
27.88	24.588
28.1	18.453
28.32	16.013
28.54	145.847
28.76	20.252
28.98	33.302
29.2	9.337
29.42	10.742
29.64	9.653
29.86	11.171
30.08	1.04
30.3	14.785
30.52	0.2
30.74	16.012
30.96	21.017
31.18	13.471
31.4	9.582
31.62	23.864
31.84	12.432
32.06	24.425
32.28	13.449
32.5	1.567
32.72	20.769
32.94	32.977
33.16	1157.86
33.38	26.552
33.6	17.978
33.82	24.675
34.04	2
34.26	18.318
34.48	11.079
34.7	8.27
34.92	10.619
35.14	28.663
35.36	33.201
35.58	13.696
35.8	28.286
36.02	20.727
36.24	2.146
36.46	9.309
36.68	23.348
36.9	7.831
37.12	238.921
37.34	18.367
37.56	14.456
37.78	57.222
38	14.241
38.22	32.193
38.44	35.4
38.66	24.792
38.88	23.233
39.1	23.171
39.32	23.409
39.54	0.858
39.76	4.671
39.98	23.019
40.2	8.298
40.42	28.741
40.64	25.435
40.86	65.314
41.08	26.991
41.3	21.882
41.52	14.466
41.74	7.984
41.96	12.16
42.18	12.886
42.4	7.296
42.62	7.555
42.84	2.797
43.06	19.542
43.28	14.987
43.5	18.016
43.72	20.948
43.94	25.546
44.16	11.81
44.38	8.584
44.6	1.564
44.82	6.396
45.04	23.31
45.26	28.167
45.48	14.747
45.7	15.079
45.92	17.618
46.14	9.863
46.36	12.872
46.58	22.68
46.8	13.269
47.02	6.632
47.24	29.535
47.46	325.77
47.68	23.264
47.9	6.194
48.12	37.018
48.34	4.503
48.56	7.666
48.78	21.663
49	18.777
49.22	21.709
49.44	4.937
49.66	17.82
49.88	27.257
50.1	19.73
50.32	26.233
50.54	17.081
50.76	17.972
50.98	5.337
51.2	8.362
51.42	1.1
51.64	20.871
51.86	14.829
52.08	14.517
52.3	37.694
52.52	9.919
52.74	7.144
52.96	11.643
53.18	21.42
53.4	19.114
53.62	11.518
53.84	14.695
54.06	36.483
54.28	1.885
54.5	13.997
54.72	24.637
54.94	17.104
55.16	16.736
55.38	19.008
55.6	0.26
55.82	28.825
56.04	10.657
56.26	75.587
56.48	142.974
56.7	25.622
56.92	14.657
57.14	8.03
57.36	26.078
57.58	6.214
57.8	6.061
58.02	3.894
58.24	4.729
58.46	8.237
58.68	10.369
58.9	14.584
59.12	26.564
59.34	15.024
59.56	15.481
59.78	28.424
60	19.737
60.22	12.955
60.44	32.334
60.66	50.588
60.88	29.643
61.1	19.427
61.32	15.127
61.54	24.349
61.76	19.324
61.98	45.645
62.2	28.449
62.42	17.933
62.64	15.778
62.86	48.566
63.08	28.371
63.3	31.046
63.52	15.151
63.74	19.893
63.96	9.699
64.18	14.153
64.4	19.383
64.62	11.589
64.84	9.643
65.06	20.286
65.28	16.691
65.5	12.554
65.72	24.39
65.94	32.73
66.16	10.18
66.38	20.825
66.6	37.437
66.82	22.908
67.04	6.719
67.26	10.343
67.48	1.272
67.7	34.18
67.92	7.052
68.14	25.468
68.36	26.304
68.58	29.837
68.8	11.934
69.02	21.212
69.24	25.305
69.46	5.825
69.68	5.698
69.9	10.667
70.12	4.785
70.34	20.663
70.56	16.611
70.78	18.73
71	39.551
71.22	12.071
71.44	10.719
71.66	17.636
71.88	7.197
72.1	19.12
72.32	34.398
72.54	29.326
72.76	16.76
72.98	17.55
73.2	27.821
73.42	20.49
73.64	7.028
73.86	3.207
74.08	7.933
74.3	23.079
74.52	29.116
74.74	19.362
74.96	22.423
75.18	3.816
75.4	19.431
75.62	28.255
75.84	7.745
76.06	25.47
76.28	25.823
76.5	8.456
76.72	33.369
76.94	29.532
77.16	24.106
77.38	13.352
77.6	8.823
77.82	24.174
78.04	27.178
78.26	0.897
78.48	2.449
78.7	17.307
78.92	13.197
79.14	21.875
79.36	39.452
79.58	1.107
79.8	39.299
80.02	13.792
80.24	22.614
80.46	17.466
80.68	4.575
80.9	31.474
81.12	1.102
81.34	11.704
81.56	23.578
81.78	3.913
82	34.29
82.22	11.644
82.44	36.694
82.66	18.676
82.88	9.654
83.1	18.564
83.32	12.349
83.54	59.304
83.76	44.395
83.98	25.352
84.2	10.183
84.42	31.255
84.64	27.309
84.86	25.162
85.08	17.144
85.3	5.246
85.52	26.006
85.74	30.728
85.96	20.493
86.18	12.534
86.4	7.688
86.62	13.054
86.84	11.324
87.06	23.284
87.28	23.482
87.5	10.81
87.72	33.04
87.94	39.949
88.16	39.401
88.38	38.005
88.6	39.22
88.82	12.847
89.04	17.522
89.26	13.976
89.48	11.141
89.7	13.737
89.92	3.191
