Measurement: Powder, Xray Data XY Processed
Mineral: Pyrite
Rruff sample: R050190
Ideal chemistry: Fe^2+^(S_2_)^2-^
Locality: Huanzala mine, Huallanca District, Dos de Mayo Province, Huanuco Department, Peru
Source: Dave Bunk Minerals
Description: Brass yellow modified cubes with typical pyrite striations
Diffraction sample description: Powder
Measured chemistry: Fe_1.00_S_2.00_
Cell parameters: a: 5.41710(5) b: 5.41710(5) c: 5.41710(5) alpha: 90. beta: 90. gamma: 90. volume: 158.965(4) crystal system: cubic
x	intensity
5	0
5.22	13.8801
5.44	13.3985
5.66	27.1824
5.88	2.12674
6.1	3.52963
6.32	11.2119
6.54	12.9468
6.76	9.78192
6.98	12.6728
7.2	1.90272
7.42	14.6728
7.64	19.6225
7.86	4.65636
8.08	2.54745
8.3	18.086
8.52	7.82199
8.74	30.7801
8.96	17.737
9.18	29.4306
9.4	22.7002
9.62	13.2199
9.84	25.0005
10.06	15.2774
10.28	6.68983
10.5	3.97067
10.72	14.0833
10.94	27.9597
11.16	15.5665
11.38	13.9608
11.6	21.1954
11.82	6.76216
12.04	18.9756
12.26	14.3674
12.48	10.4286
12.7	9.45811
12.92	31.8734
13.14	15.4701
13.36	10.5774
13.58	10.8959
13.8	9.38835
14.02	6.30903
14.24	13.122
14.46	8.00598
14.68	26.0891
14.9	34.0479
15.12	13.3706
15.34	1.48653
15.56	14.3106
15.78	12.1334
16	20.2288
16.22	9.28211
16.44	26.6828
16.66	10.5013
16.88	24.1927
17.1	30.8229
17.32	2.52007
17.54	13.1203
17.76	36.2312
17.98	23.4106
18.2	8.26621
18.42	5.90793
18.64	14.8509
18.86	14.8356
19.08	15.3294
19.3	8.2044
19.52	20.778
19.74	18.6494
19.96	2.28308
20.18	9.24333
20.4	3.76543
20.62	36.8986
20.84	19.283
21.06	17.5488
21.28	11.6682
21.5	17.0213
21.72	9.61063
21.94	29.9382
22.16	0.999107
22.38	29.3099
22.6	3.49983
22.82	12.8515
23.04	19.7755
23.26	47.4057
23.48	4.41338
23.7	0.881897
23.92	16.8592
24.14	24.0178
24.36	5.84743
24.58	12.7391
24.8	4.86316
25.02	29.2177
25.24	12.5633
25.46	14.1165
25.68	17.9641
25.9	19.5973
26.12	13.4375
26.34	19.6986
26.56	26.8969
26.78	17.8383
27	22.5422
27.22	14.4474
27.44	0.39489
27.66	9.98679
27.88	21.6224
28.1	7.26668
28.32	29.0211
28.54	76.8057
28.76	15.1503
28.98	15.7815
29.2	18.974
29.42	24.8342
29.64	7.70066
29.86	20.8432
30.08	17.2871
30.3	9.24788
30.52	12.1607
30.74	16.6443
30.96	1.40524
31.18	21.1299
31.4	18.6674
31.62	9.62731
31.84	23.3352
32.06	0.590004
32.28	13.7317
32.5	26.2037
32.72	2.89917
32.94	24.068
33.16	177.45
33.38	33.4925
33.6	1.6359
33.82	23.4764
34.04	9.56714
34.26	24.2633
34.48	27.4318
34.7	17.8037
34.92	16.6458
35.14	8.5392
35.36	11.6478
35.58	20.5177
35.8	11.0795
36.02	7.83238
36.24	29.8887
36.46	20.2053
36.68	21.862
36.9	26.265
37.12	312.704
37.34	24.5009
37.56	28.4363
37.78	37.5718
38	2.97617
38.22	30.0269
38.44	15.2844
38.66	12.5634
38.88	17.0381
39.1	18.161
39.32	22.3641
39.54	19.7438
39.76	19.58
39.98	35.079
40.2	33.1616
40.42	15.802
40.64	31.2147
40.86	91.207
41.08	21.8308
41.3	12.8853
41.52	9.31081
41.74	11.2514
41.96	22.0812
42.18	6.72054
42.4	26.3196
42.62	16.7348
42.84	6.67746
43.06	24.5139
43.28	17.4887
43.5	25.5749
43.72	4.86906
43.94	8.67094
44.16	6.78127
44.38	19.8792
44.6	26.5629
44.82	14.5379
45.04	7.50677
45.26	19.4926
45.48	15.5783
45.7	11.0677
45.92	17.2666
46.14	9.95461
46.36	9.69265
46.58	11.8698
46.8	15.3126
47.02	22.3935
47.24	23.3595
47.46	136.876
47.68	21.4267
47.9	23.5014
48.12	11.2857
48.34	8.23961
48.56	6.03805
48.78	7.73372
49	6.93468
49.22	0.090126
49.44	10.757
49.66	10.4643
49.88	39.0184
50.1	26.0341
50.32	22.3767
50.54	22.0297
50.76	3.68535
50.98	3.53101
51.2	40.2073
51.42	26.7022
51.64	31.9377
51.86	28.049
52.08	15.4031
52.3	38.1663
52.52	23.4988
52.74	0.078667
52.96	4.70791
53.18	12.2076
53.4	24.4491
53.62	18.1532
53.84	16.4596
54.06	5.70668
54.28	18.9028
54.5	10.1824
54.72	26.7228
54.94	24.5908
55.16	26.7783
55.38	5.77605
55.6	6.13361
55.82	13.223
56.04	16.7987
56.26	55.1473
56.48	336.456
56.7	31.8663
56.92	3.80646
57.14	32.8787
57.36	18.433
57.58	17.1197
57.8	4.65234
58.02	9.94795
58.24	1.86956
58.46	0.192093
58.68	23.4535
58.9	19.293
59.12	27.8197
59.34	32.8524
59.56	27.0143
59.78	17.7822
60	4.65859
60.22	14.6054
60.44	12.6677
60.66	0.31842
60.88	8.61309
61.1	2.1428
61.32	14.2146
61.54	5.45824
61.76	112.278
61.98	17.7255
62.2	15.2548
62.42	0.588081
62.64	16.9084
62.86	35.0808
63.08	31.8717
63.3	18.5495
63.52	16.3902
63.74	5.25423
63.96	22.0196
64.18	12.4733
64.4	30.7846
64.62	14.8149
64.84	1.89325
65.06	23.1714
65.28	15.2699
65.5	3.43144
65.72	34.6304
65.94	3.13259
66.16	14.2067
66.38	11.2636
66.6	27.2817
66.82	12.4396
67.04	18.0396
67.26	33.2724
67.48	3.56127
67.7	6.55367
67.92	15.5887
68.14	13.6286
68.36	4.8428
68.58	17.6404
68.8	9.96951
69.02	15.1465
69.24	25.3372
69.46	26.2432
69.68	1.76595
69.9	8.77432
70.12	29.9488
70.34	8.00488
70.56	34.2023
70.78	4.3474
71	24.5109
71.22	10.6842
71.44	38.2977
71.66	1.64091
71.88	24.6667
72.1	7.60506
72.32	28.5162
72.54	7.36807
72.76	4.37607
72.98	13.0194
73.2	25.9238
73.42	10.6827
73.64	25.7324
73.86	36.3018
74.08	30.1252
74.3	18.8085
74.52	27.7296
74.74	17.5555
74.96	28.0652
75.18	17.4159
75.4	23.5647
75.62	23.0598
75.84	30.3065
76.06	21.717
76.28	11.0829
76.5	27.8599
76.72	6.37846
76.94	18.1659
77.16	9.79416
77.38	17.4288
77.6	0.863007
77.82	19.2404
78.04	10.3983
78.26	23.5155
78.48	22.5994
78.7	13.1809
78.92	24.3801
79.14	29.6093
79.36	25.9306
79.58	19.4201
79.8	20.1973
80.02	2.75446
80.24	9.15482
80.46	25.5601
80.68	10.9258
80.9	0.982178
81.12	9.84075
81.34	43.2445
81.56	36.395
81.78	10.427
82	16.5217
82.22	14.8221
82.44	28.0335
82.66	0.822449
82.88	12.483
83.1	8.27932
83.32	24.5032
83.54	0.521881
83.76	13.0761
83.98	34.2708
84.2	13.912
84.42	41.1241
84.64	53.6388
84.86	10.9678
85.08	8.99061
85.3	31.0392
85.52	2.92188
85.74	6.94025
85.96	3.76782
86.18	15.0446
86.4	0.115067
86.62	8.46552
86.84	35.1571
87.06	28.4925
87.28	2.65839
87.5	13.7051
87.72	34.1187
87.94	32.8814
88.16	10.6061
88.38	36.3547
88.6	22.3027
88.82	17.1586
89.04	2.60893
89.26	25.9408
89.48	16.2209
89.7	22.5189
89.92	12.805
