Measurement: Powder, Xray Data XY Processed
Mineral: Pyromorphite
Rruff sample: R060285
Ideal chemistry: Pb^2+^_5_(PO_4_)_3_Cl
Locality: Les Farges mine, Correze Ussel, France
Source: Herb Obodda
Description: Aggregate of green hexagonal prisms
Diffraction sample description: Powder
Measured chemistry: Pb_5.00_((P_0.99_As_0.01_)_Î£=1_O_4_)_3_Cl_1.00_
Cell parameters: a: 9.9853(2) b: 9.9853(2) c: 7.3441(3) alpha: 90 beta: 90 gamma: 120 volume: 634.14(4) crystal system: hexagonal
x	intensity
5	0
5.22	7.213
5.44	9.365
5.66	2.922
5.88	3.783
6.1	9.765
6.32	10.073
6.54	11.36
6.76	6.323
6.98	2.458
7.2	2.767
7.42	1.96
7.64	1.18
7.86	2.246
8.08	5.369
8.3	8.481
8.52	2.326
8.74	11.09
8.96	3.693
9.18	5.31
9.4	7.174
9.62	8.871
9.84	10.627
10.06	7.597
10.28	7.698
10.5	6.86
10.72	2.802
10.94	0.991
11.16	4.279
11.38	0.507
11.6	4.855
11.82	1.933
12.04	5.074
12.26	5.138
12.48	6.176
12.7	6.092
12.92	5.182
13.14	3.264
13.36	3.217
13.58	6.036
13.8	4.939
14.02	5.719
14.24	7.667
14.46	0.559
14.68	4.729
14.9	7.647
15.12	5.673
15.34	5.381
15.56	2.195
15.78	4.083
16	7.223
16.22	4.195
16.44	10.164
16.66	0.1
16.88	1.032
17.1	9.06
17.32	4.968
17.54	5.87
17.76	44.671
17.98	3.82
18.2	3.773
18.42	5.456
18.64	6.357
18.86	4.361
19.08	2.348
19.3	3.058
19.52	6.478
19.74	0.829
19.96	5.096
20.18	2.819
20.4	6.244
20.62	71.045
20.84	4.821
21.06	4.877
21.28	9.732
21.5	140.583
21.72	7.939
21.94	7.437
22.16	2.78
22.38	2.857
22.6	3.007
22.82	1.151
23.04	2.257
23.26	9.319
23.48	8.202
23.7	10.141
23.92	16.085
24.14	11.168
24.36	9.097
24.58	3.742
24.8	2.953
25.02	9.945
25.24	4.797
25.46	2.609
25.68	5.533
25.9	0.266
26.12	3.898
26.34	112.689
26.56	19.351
26.78	1.204
27	11.198
27.22	47.166
27.44	22.026
27.66	3.077
27.88	3.284
28.1	5.922
28.32	1.739
28.54	7.393
28.76	6.84
28.98	3.915
29.2	5.211
29.42	7.375
29.64	11.017
29.86	157.651
30.08	89.16
30.3	328.76
30.52	21.051
30.74	4.317
30.96	72.738
31.18	45.447
31.4	6.322
31.62	14.375
31.84	0.855
32.06	9.405
32.28	10.192
32.5	1.016
32.72	8.483
32.94	1.774
33.16	2.034
33.38	9.434
33.6	9.885
33.82	0.853
34.04	8.905
34.26	7.007
34.48	2.927
34.7	8.985
34.92	4.84
35.14	1.006
35.36	2.003
35.58	1.122
35.8	6.769
36.02	19.747
36.24	6.703
36.46	1.701
36.68	0.944
36.9	8.216
37.12	1.329
37.34	2.59
37.56	12.695
37.78	7.781
38	7.827
38.22	0.892
38.44	4.802
38.66	4.705
38.88	1.593
39.1	0.131
39.32	6.477
39.54	12.366
39.76	28.065
39.98	0.676
40.2	9.35
40.42	0.917
40.64	2.186
40.86	3.599
41.08	78.719
41.3	13.82
41.52	2.695
41.74	31.341
41.96	8.202
42.18	3.212
42.4	7.132
42.62	1.993
42.84	0.809
43.06	1.612
43.28	12.756
43.5	4.535
43.72	15.475
43.94	86.037
44.16	9.363
44.38	1.891
44.6	0.29
44.82	5.508
45.04	21.236
45.26	45.982
45.48	15.767
45.7	54.524
45.92	10.177
46.14	14.025
46.36	99.797
46.58	9.558
46.8	0.665
47.02	5.038
47.24	5.482
47.46	101.037
47.68	17.596
47.9	7.258
48.12	18.413
48.34	43.059
48.56	2.909
48.78	22.088
49	81.139
49.22	3.403
49.44	3.473
49.66	36.409
49.88	12.755
50.1	5.024
50.32	10.084
50.54	1.96
50.76	11.022
50.98	5.716
51.2	3.335
51.42	4.969
51.64	11.387
51.86	6.301
52.08	4.202
52.3	1.841
52.52	2.556
52.74	3.406
52.96	0.228
53.18	11.388
53.4	7.219
53.62	6.994
53.84	2.94
54.06	1.693
54.28	2.439
54.5	15.609
54.72	20.541
54.94	7.006
55.16	8.621
55.38	1.053
55.6	2.965
55.82	8.86
56.04	3.105
56.26	12.987
56.48	14.959
56.7	24.938
56.92	9.779
57.14	1.214
57.36	10.195
57.58	28.672
57.8	12.652
58.02	2.601
58.24	2.46
58.46	5.123
58.68	1.068
58.9	6.639
59.12	18.349
59.34	10.203
59.56	25.098
59.78	35.244
60	36.681
60.22	17.648
60.44	6.725
60.66	6.947
60.88	27.244
61.1	51.501
61.32	21.088
61.54	8.569
61.76	1.432
61.98	4.709
62.2	8.357
62.42	3.074
62.64	9.39
62.86	7.774
63.08	5.919
63.3	3.003
63.52	4.194
63.74	8.095
63.96	2.37
64.18	1.467
64.4	6.591
64.62	4.319
64.84	12.224
65.06	0.186
65.28	0.011
65.5	4.821
65.72	6.626
65.94	2.569
66.16	1.204
66.38	5.812
66.6	6.571
66.82	22.642
67.04	6.27
67.26	3.875
67.48	1.988
67.7	1.831
67.92	1.624
68.14	4.368
68.36	8.683
68.58	6.521
68.8	3.222
69.02	13.872
69.24	5.064
69.46	0.226
69.68	13.193
69.9	13.735
70.12	27.341
70.34	17.136
70.56	16.019
70.78	6.229
71	21.121
71.22	13.184
71.44	10.018
71.66	38.133
71.88	34.36
72.1	11.921
72.32	7.219
72.54	1.675
72.76	20.319
72.98	29.199
73.2	20.751
73.42	8.577
73.64	8.787
73.86	2.113
74.08	3.686
74.3	5.139
74.52	8.533
74.74	3.836
74.96	2.951
75.18	0.678
75.4	1.245
75.62	8.055
75.84	1.764
76.06	5.317
76.28	11.054
76.5	5.832
76.72	1.624
76.94	8.863
77.16	5.509
77.38	2.341
77.6	1.436
77.82	6.498
78.04	5.567
78.26	10.486
78.48	15.296
78.7	8.273
78.92	5.36
79.14	4.138
79.36	7.227
79.58	4.076
79.8	11.924
80.02	3.565
80.24	2.245
80.46	6.945
80.68	6.613
80.9	17.655
81.12	11.509
81.34	8.151
81.56	10.986
81.78	0.323
82	3.269
82.22	13.511
82.44	7.876
82.66	11.331
82.88	2.918
83.1	3.441
83.32	8.52
83.54	2.789
83.76	2.039
83.98	3.154
84.2	0.88
84.42	1.906
84.64	9.091
84.86	2.182
85.08	2.25
85.3	4.024
85.52	2.072
85.74	1.183
85.96	4.321
86.18	10.435
86.4	5.736
86.62	10.966
86.84	12.061
87.06	3.519
87.28	2.453
87.5	7.266
87.72	9.189
87.94	4.893
88.16	5.656
88.38	6.451
88.6	5.207
88.82	13.677
89.04	9.217
89.26	5.229
89.48	6.825
89.7	0.711
89.92	10.645
