Measurement: Powder, Xray Data XY Processed
Mineral: Pyrochlore
Rruff sample: R060165
Ideal chemistry: Ca_2_Nb_2_O_7_
Locality: Betafo, Madagascar
Source: Marcus Origlieri
Description: Red-brown octahedon superficially altered yellow, chemistry does not match any IMA approved mineral name.
Diffraction sample description: Powder
Measured chemistry: ([box]_1.02_U^4+^_0.95_Ca_0.03_)_Σ=2_(Nb_1.03_Ti_0.65_Al_0.13_Ta_0.10_Fe^3+^_0.06_Th_0.03_)_Σ=2_(O_5.80_(OH)_1.20_)_Σ=7_
x	intensity
5	0
5.22	17.8765
5.44	10.6274
5.66	1.6332
5.88	10.7353
6.1	12.1832
6.32	6.86632
6.54	21.169
6.76	11.7194
6.98	2.5085
7.2	7.81307
7.42	9.0145
7.64	7.30238
7.86	6.7281
8.08	0.758288
8.3	8.07451
8.52	1.69973
8.74	5.66182
8.96	8.52965
9.18	2.18703
9.4	13.3913
9.62	9.96438
9.84	11.7515
10.06	10.8775
10.28	4.54735
10.5	2.48039
10.72	16.0778
10.94	7.50579
11.16	14.5166
11.38	3.47771
11.6	1.569
11.82	0.588682
12.04	1.17222
12.26	10.6775
12.48	1.41957
12.7	9.22028
12.92	13.4932
13.14	12.4377
13.36	1.16026
13.58	15.1494
13.8	4.54772
14.02	1.95841
14.24	0.026474
14.46	10.1937
14.68	8.60287
14.9	7.98343
15.12	5.43455
15.34	8.32931
15.56	4.54777
15.78	8.93257
16	11.104
16.22	9.21739
16.44	0.14844
16.66	7.26926
16.88	5.1202
17.1	2.39414
17.32	1.19438
17.54	3.13509
17.76	1.37485
17.98	2.2631
18.2	6.13224
18.42	4.98813
18.64	7.75242
18.86	5.74643
19.08	6.6185
19.3	2.3651
19.52	8.71002
19.74	2.51152
19.96	8.74727
20.18	4.49516
20.4	7.26124
20.62	3.79462
20.84	5.4956
21.06	3.53474
21.28	3.1415
21.5	11.7889
21.72	9.87311
21.94	5.83198
22.16	7.69768
22.38	0.871505
22.6	10.5364
22.82	11.4321
23.04	5.08819
23.26	6.39936
23.48	5.44912
23.7	4.84978
23.92	13.1063
24.14	16.4459
24.36	3.72837
24.58	10.0041
24.8	14.6011
25.02	44.4532
25.24	23.2167
25.46	15.4993
25.68	1.67417
25.9	16.0751
26.12	3.12791
26.34	2.13291
26.56	8.15089
26.78	1.45269
27	4.56279
27.22	5.43504
27.44	11.2292
27.66	8.47919
27.88	8.70984
28.1	15.9714
28.32	6.546
28.54	22.5161
28.76	7.65638
28.98	21.6916
29.2	14.3366
29.42	17.6636
29.64	7.75221
29.86	9.57564
30.08	6.18424
30.3	6.02579
30.52	4.92874
30.74	8.14822
30.96	19.4312
31.18	10.8157
31.4	3.65495
31.62	5.52335
31.84	14.343
32.06	21.9796
32.28	13.7109
32.5	7.32147
32.72	6.91857
32.94	7.53003
33.16	1.73899
33.38	5.0105
33.6	12.7644
33.82	14.972
34.04	11.6001
34.26	4.66568
34.48	13.4868
34.7	7.39639
34.92	3.26047
35.14	6.39753
35.36	9.24451
35.58	3.65749
35.8	9.63368
36.02	2.10525
36.24	2.97768
36.46	12.8661
36.68	11.6686
36.9	7.515
37.12	7.55404
37.34	14.8633
37.56	10.9685
37.78	7.51639
38	7.76361
38.22	9.06635
38.44	10.922
38.66	8.42152
38.88	2.82502
39.1	7.23585
39.32	1.63322
39.54	2.23748
39.76	8.17718
39.98	2.22513
40.2	11.2083
40.42	5.26964
40.64	10.3257
40.86	11.9098
41.08	7.89244
41.3	6.13954
41.52	0.057109
41.74	13.9314
41.96	11.2637
42.18	9.26189
42.4	10.2503
42.62	13.0598
42.84	3.86072
43.06	6.99907
43.28	6.93905
43.5	2.83206
43.72	6.50938
43.94	6.38567
44.16	6.36916
44.38	3.92636
44.6	10.2173
44.82	3.48351
45.04	8.51288
45.26	4.60107
45.48	15.3619
45.7	8.11669
45.92	11.7011
46.14	8.18325
46.36	2.59793
46.58	7.82232
46.8	10.0084
47.02	9.78659
47.24	7.04277
47.46	16.4497
47.68	9.8485
47.9	4.58238
48.12	9.72754
48.34	6.70312
48.56	12.053
48.78	6.72825
49	2.29161
49.22	8.82153
49.44	3.46577
49.66	4.13836
49.88	4.66428
50.1	3.0311
50.32	2.1774
50.54	0.582874
50.76	7.80181
50.98	9.19629
51.2	6.09828
51.42	14.2852
51.64	0.123375
51.86	7.79499
52.08	5.51828
52.3	3.94305
52.52	5.7496
52.74	1.39751
52.96	11.0362
53.18	10.5918
53.4	12.8438
53.62	3.55734
53.84	0.45983
54.06	11.2156
54.28	5.39416
54.5	10.6742
54.72	4.27561
54.94	3.73264
55.16	6.23972
55.38	0.389061
55.6	6.99998
55.82	6.48654
56.04	7.9665
56.26	9.9538
56.48	9.09462
56.7	6.31723
56.92	13.2388
57.14	3.15601
57.36	13.0469
57.58	8.99083
57.8	5.81097
58.02	7.83285
58.24	8.67836
58.46	8.77081
58.68	11.8198
58.9	8.764
59.12	4.16323
59.34	8.31214
59.56	5.31621
59.78	7.24504
60	0.64507
60.22	4.38218
60.44	2.18278
60.66	2.97143
60.88	3.47033
61.1	5.40284
61.32	6.23054
61.54	17.6936
61.76	17.5781
61.98	6.78592
62.2	16.1568
62.42	3.30143
62.64	4.66427
62.86	7.0836
63.08	3.58816
63.3	6.01283
63.52	1.40363
63.74	0.345019
63.96	3.90451
64.18	6.17068
64.4	5.94557
64.62	12.0457
64.84	2.95594
65.06	8.31808
65.28	7.34718
65.5	2.43281
65.72	1.39906
65.94	7.37913
66.16	2.58371
66.38	3.63156
66.6	4.81001
66.82	0.814148
67.04	9.81785
67.26	9.95422
67.48	5.49679
67.7	6.43295
67.92	2.45244
68.14	1.44897
68.36	6.41634
68.58	7.27266
68.8	8.03737
69.02	5.29383
69.24	1.58707
69.46	4.66585
69.68	3.7272
69.9	7.70572
70.12	11.9644
70.34	6.08243
70.56	8.27323
70.78	3.36062
71	9.65487
71.22	3.87975
71.44	4.73489
71.66	5.84697
71.88	15.6033
72.1	5.42588
72.32	9.36093
72.54	4.09606
72.76	5.05876
72.98	10.8256
73.2	4.78582
73.42	3.47367
73.64	6.32813
73.86	3.27901
74.08	7.47261
74.3	8.45548
74.52	8.56136
74.74	6.67481
74.96	9.74475
75.18	0.496779
75.4	6.60492
75.62	11.7608
75.84	7.99999
76.06	1.96984
76.28	6.09258
76.5	1.25117
76.72	2.29469
76.94	13.1906
77.16	7.20611
77.38	0.684861
77.6	26.3468
77.82	5.30109
78.04	3.20347
78.26	8.15
78.48	7.4588
78.7	12.33
78.92	11.09
79.14	5.59098
79.36	7.53372
79.58	2.28458
79.8	6.70136
80.02	4.62418
80.24	14.4935
80.46	2.49884
80.68	8.28772
80.9	7.86993
81.12	13.7853
81.34	0.071483
81.56	2.08928
81.78	10.1801
82	7.98936
82.22	10.155
82.44	2.5825
82.66	0.766673
82.88	0.818364
83.1	2.91888
83.32	15.0961
83.54	1.67239
83.76	11.262
83.98	6.1012
84.2	8.27506
84.42	4.54878
84.64	2.66266
84.86	5.46687
85.08	5.52141
85.3	8.49124
85.52	2.60756
85.74	12.644
85.96	13.5191
86.18	8.49913
86.4	2.48625
86.62	2.38343
86.84	3.12987
87.06	2.29186
87.28	1.25067
87.5	7.29199
87.72	6.39071
87.94	5.39684
88.16	9.37973
88.38	6.68937
88.6	2.8168
88.82	3.78058
89.04	6.98908
89.26	6.75537
89.48	7.88741
89.7	7.18956
89.92	3.43092
