Measurement: Powder, Xray Data XY Processed
Mineral: Pyroxmangite
Rruff sample: R070212
Ideal chemistry: Mn^2+^SiO_3_
Locality: Isanago mine,  Ohro (Ōro; Ouro; Ooro),  Naka-gun,  Kyoto Prefecture,  Kinki Region,  Honshu Island,  Japan
Source: Michael Scott
Description: Pale yellow to brown semitransparent massive associated with quartz
Diffraction sample description: Powder
Measured chemistry: (Mn_0.47_Fe^2+^_0.39_Mg_0.08_Ca_0.06_)_Σ=1_Si_1.00_O_3_ ; veins: (Mn_0.35_Fe_0.26_Ca_0.22_Mg_0.17_)_Σ=1_CO_3_ (rhodochrosite)
Cell parameters: a: 9.6626(9) b: 10.4669(9) c: 17.379(2) alpha: 112.161(9) beta: 103.16(1) gamma: 82.763(7) volume: 1583.5(2) crystal system: triclinic
x	intensity
5	0
5.22	23.0564
5.44	0.740814
5.66	22.3891
5.88	6.30518
6.1	23.1211
6.32	11.7406
6.54	1.22728
6.76	2.51209
6.98	28.2492
7.2	0.215729
7.42	19.88
7.64	11.2416
7.86	26.1242
8.08	30.4277
8.3	49.8471
8.52	19.699
8.74	17.674
8.96	28.7577
9.18	15.2114
9.4	2.48521
9.62	24.0354
9.84	20.6214
10.06	18.0954
10.28	16.7082
10.5	15.4125
10.72	25.8512
10.94	17.2379
11.16	30.3235
11.38	23.4802
11.6	11.2829
11.82	1.11759
12.04	2.22572
12.26	14.5297
12.48	29.6063
12.7	37.2628
12.92	18.2713
13.14	16.0178
13.36	24.7838
13.58	31.3323
13.8	20.0076
14.02	8.37709
14.24	4.4574
14.46	12.2265
14.68	16.0406
14.9	37.2734
15.12	6.78773
15.34	29.6582
15.56	30.3347
15.78	11.5992
16	19.2228
16.22	8.73879
16.44	0.499931
16.66	30.4571
16.88	10.5055
17.1	29.0532
17.32	7.92906
17.54	18.3954
17.76	5.37434
17.98	7.73357
18.2	8.42754
18.42	34.9515
18.64	32.7823
18.86	70.2506
19.08	10.9742
19.3	11.7516
19.52	13.6321
19.74	14.2854
19.96	13.2036
20.18	14.7789
20.4	14.3041
20.62	6.71891
20.84	18.2368
21.06	36.0633
21.28	5.5491
21.5	26.6051
21.72	25.5723
21.94	14.786
22.16	15.5694
22.38	11.579
22.6	13.0865
22.82	12.0548
23.04	10.5735
23.26	20.2096
23.48	31.6638
23.7	12.9801
23.92	21.9721
24.14	34.8445
24.36	29.897
24.58	4.85148
24.8	31.5095
25.02	17.9532
25.24	25.5598
25.46	40.6286
25.68	18.9356
25.9	92.8392
26.12	31.9603
26.34	22.7078
26.56	6.25253
26.78	36.613
27	44.7395
27.22	16.1444
27.44	20.6445
27.66	28.2961
27.88	53.3664
28.1	24.9384
28.32	17.5357
28.54	37.2411
28.76	104.027
28.98	3.58099
29.2	23.6731
29.42	13.2558
29.64	78.9343
29.86	40.6102
30.08	20.4209
30.3	144.685
30.52	37.2686
30.74	2.59065
30.96	29.2962
31.18	5.80197
31.4	44.1096
31.62	25.8482
31.84	26.1754
32.06	23.2585
32.28	27.8891
32.5	21.4348
32.72	3.17027
32.94	22.0946
33.16	41.8176
33.38	5.14916
33.6	35.396
33.82	27.5643
34.04	23.4496
34.26	42.3286
34.48	13.5286
34.7	55.6255
34.92	7.51419
35.14	14.3126
35.36	29.0439
35.58	16.2072
35.8	20.5268
36.02	68.2241
36.24	10.6469
36.46	9.0577
36.68	10.4668
36.9	13.5569
37.12	7.95514
37.34	13.6954
37.56	7.14969
37.78	18.9516
38	11.1884
38.22	34.8291
38.44	27.9211
38.66	7.06209
38.88	22.0886
39.1	4.95395
39.32	11.2551
39.54	7.22221
39.76	1.92638
39.98	10.7494
40.2	16.3958
40.42	30.3266
40.64	3.35416
40.86	8.66847
41.08	44.2371
41.3	12.0754
41.52	36.4687
41.74	47.6862
41.96	19.2648
42.18	30.2075
42.4	18.523
42.62	26.3334
42.84	54.3452
43.06	48.7197
43.28	9.47813
43.5	20.41
43.72	7.5479
43.94	11.0262
44.16	31.221
44.38	33.8945
44.6	28.2375
44.82	19.7001
45.04	15.6661
45.26	3.18491
45.48	23.8501
45.7	9.25551
45.92	24.336
46.14	2.09041
46.36	12.8113
46.58	20.048
46.8	27.2831
47.02	12.4319
47.24	29.4228
47.46	17.9327
47.68	5.72073
47.9	18.029
48.12	34.2658
48.34	9.45843
48.56	8.6001
48.78	13.3038
49	4.58374
49.22	19.3161
49.44	2.89198
49.66	16.6148
49.88	24.1325
50.1	12.4669
50.32	13.3089
50.54	4.89842
50.76	27.7261
50.98	0.070389
51.2	11.574
51.42	22.5629
51.64	27.2413
51.86	0.251694
52.08	27.279
52.3	19.8921
52.52	9.04918
52.74	33.4966
52.96	22.6041
53.18	9.92917
53.4	6.58118
53.62	58.9447
53.84	14.148
54.06	31.3117
54.28	40.5955
54.5	12.5261
54.72	22.9547
54.94	19.7596
55.16	10.657
55.38	35.3124
55.6	36.4832
55.82	30.4276
56.04	21.6461
56.26	19.5609
56.48	9.11951
56.7	33.1251
56.92	30.9532
57.14	20.6098
57.36	1.52642
57.58	21.5134
57.8	22.7232
58.02	28.6967
58.24	22.403
58.46	6.56134
58.68	35.867
58.9	66.3235
59.12	20.0448
59.34	22.8126
59.56	17.6615
59.78	7.10846
60	24.2154
60.22	39.9439
60.44	31.9122
60.66	16.8851
60.88	46.981
61.1	19.0212
61.32	12.6032
61.54	30.9557
61.76	21.2578
61.98	16.8418
62.2	23.7536
62.42	17.9907
62.64	26.7154
62.86	17.9696
63.08	19.3796
63.3	5.97812
63.52	4.86918
63.74	30.3446
63.96	15.3945
64.18	37.8476
64.4	40.2375
64.62	38.4466
64.84	0.859634
65.06	17.5675
65.28	3.48705
65.5	7.68153
65.72	9.33722
65.94	18.229
66.16	35.1921
66.38	21.5092
66.6	17.4438
66.82	7.75734
67.04	32.1161
67.26	30.6154
67.48	2.84709
67.7	9.76105
67.92	6.38985
68.14	28.0449
68.36	13.4587
68.58	1.00578
68.8	37.8392
69.02	15.1784
69.24	28.799
69.46	3.28162
69.68	9.9198
69.9	12.4341
70.12	23.6463
70.34	32.8427
70.56	40.4277
70.78	31.1717
71	18.0441
71.22	1.6387
71.44	21.1007
71.66	21.1675
71.88	33.2343
72.1	10.3772
72.32	3.19719
72.54	12.8643
72.76	23.8961
72.98	9.88884
73.2	37.9153
73.42	25.1572
73.64	11.0404
73.86	35.4542
74.08	30.2528
74.3	18.1571
74.52	31.9943
74.74	34.5541
74.96	14.63
75.18	5.31149
75.4	20.501
75.62	3.7789
75.84	13.6494
76.06	29.921
76.28	26.5393
76.5	25.0132
76.72	18.6038
76.94	3.73513
77.16	16.3227
77.38	17.983
77.6	29.585
77.82	14.1821
78.04	31.1505
78.26	30.4532
78.48	20.1316
78.7	7.54188
78.92	11.5071
79.14	28.7789
79.36	26.0477
79.58	19.8516
79.8	18.1802
80.02	16.1403
80.24	30.4643
80.46	25.7424
80.68	28.2246
80.9	17.8246
81.12	24.8361
81.34	27.3719
81.56	17.289
81.78	21.8525
82	9.66127
82.22	13.0003
82.44	15.9627
82.66	31.8834
82.88	23.3619
83.1	26.3572
83.32	13.088
83.54	3.24652
83.76	15.9871
83.98	10.539
84.2	8.22649
84.42	30.4404
84.64	20.1502
84.86	9.96469
85.08	17.1502
85.3	16.9671
85.52	19.0574
85.74	2.56003
85.96	14.3685
86.18	4.48988
86.4	16.1343
86.62	6.15187
86.84	29.486
87.06	11.6332
87.28	43.4224
87.5	22.4918
87.72	20.7938
87.94	12.7513
88.16	8.93269
88.38	18.5406
88.6	42.2367
88.82	0.203011
89.04	19.4689
89.26	25.5267
89.48	22.6254
89.7	28.8406
89.92	8.80409
