Measurement: Powder, Xray Data XY Processed
Mineral: Pyrophyllite
Rruff sample: R050051
Ideal chemistry: Al_2_Si_4_O_10_(OH)_2_
Locality: Cottonstone Mountain, Mecklenburg County, North Carolina, USA
Source: University of Arizona Mineral Museum
Description: Radiating lamellar aggregates
Diffraction sample description: Powder
Measured chemistry: (Al_.991_Fe_.008_Mg_.001_)_2_Si_4_O_10_(OH)_2_
Cell parameters: a: 4.9815(4) b: 8.8219(4) c: 18.4808(4) alpha: 90 beta: 95.83(1) gamma: 90 volume: 807.95(9) crystal system: monoclinic
x	intensity
5	0
5.22	38.729
5.44	15.636
5.66	19.193
5.88	10.569
6.1	11.971
6.32	18.494
6.54	6.173
6.76	20.437
6.98	3.883
7.2	26.841
7.42	5.636
7.64	7.767
7.86	8.006
8.08	2.919
8.3	3.928
8.52	1.578
8.74	39.612
8.96	31.791
9.18	61.688
9.4	199.67
9.62	2869.01
9.84	111.927
10.06	24.196
10.28	0.481
10.5	6.942
10.72	3.94
10.94	7.634
11.16	4.817
11.38	0.788
11.6	8.387
11.82	4.029
12.04	4.023
12.26	7.772
12.48	7.195
12.7	1.249
12.92	2.104
13.14	9.196
13.36	13.336
13.58	3.793
13.8	2.995
14.02	4.016
14.24	3.109
14.46	13.047
14.68	0.726
14.9	13.609
15.12	9.919
15.34	7.868
15.56	1.041
15.78	13.202
16	4.088
16.22	3.777
16.44	9.724
16.66	10.244
16.88	4.603
17.1	11.387
17.32	9.993
17.54	16.638
17.76	6.1
17.98	8.046
18.2	6.727
18.42	10.189
18.64	7.624
18.86	22.037
19.08	69.558
19.3	1120.41
19.52	60.379
19.74	16.948
19.96	87.694
20.18	58.93
20.4	34.58
20.62	10.682
20.84	15.532
21.06	5.947
21.28	22.268
21.5	20.314
21.72	12.872
21.94	5.771
22.16	9.327
22.38	7.138
22.6	2.652
22.82	9.982
23.04	20.968
23.26	6.22
23.48	9.437
23.7	4.785
23.92	5.103
24.14	9.177
24.36	16.143
24.58	14.707
24.8	15.668
25.02	10.262
25.24	12.952
25.46	2.814
25.68	6.037
25.9	6.122
26.12	8.985
26.34	19.378
26.56	13.533
26.78	16.649
27	9.598
27.22	2.851
27.44	12.19
27.66	6.273
27.88	0.035
28.1	0.032
28.32	30.805
28.54	24.412
28.76	44.705
28.98	239.24
29.2	1579.08
29.42	80.28
29.64	19.76
29.86	13.795
30.08	5.524
30.3	0.127
30.52	6.429
30.74	14.91
30.96	10.702
31.18	10.829
31.4	6.624
31.62	11.247
31.84	7.811
32.06	14.871
32.28	8.21
32.5	11.83
32.72	3.615
32.94	11.729
33.16	3.89
33.38	13.484
33.6	5.775
33.82	3.716
34.04	11.298
34.26	5.126
34.48	1.608
34.7	15.044
34.92	25.503
35.14	24.252
35.36	12.778
35.58	12.585
35.8	3.86
36.02	2.9
36.24	9.304
36.46	8.623
36.68	6.248
36.9	12.665
37.12	37.636
37.34	15.899
37.56	2.65
37.78	9.804
38	0.501
38.22	3.62
38.44	8.941
38.66	9.202
38.88	2.408
39.1	36.689
39.32	35.862
39.54	10.122
39.76	9.662
39.98	1.328
40.2	7.358
40.42	5.544
40.64	15.686
40.86	9.602
41.08	3.498
41.3	0.411
41.52	10.376
41.74	10.035
41.96	9.758
42.18	1.178
42.4	0.441
42.62	9.12
42.84	1.848
43.06	16.64
43.28	1.485
43.5	11.469
43.72	7.076
43.94	13.476
44.16	15.657
44.38	1.097
44.6	0.507
44.82	11.772
45.04	1.741
45.26	9.021
45.48	9.431
45.7	1.027
45.92	12.299
46.14	2.353
46.36	5.166
46.58	4.374
46.8	0.92
47.02	7.681
47.24	10.634
47.46	10.082
47.68	6.732
47.9	7.185
48.12	9.486
48.34	4.98
48.56	13.648
48.78	6.425
49	3.388
49.22	16.12
49.44	43.516
49.66	100.758
49.88	15.278
50.1	15.408
50.32	3.877
50.54	5.339
50.76	6.203
50.98	5.607
51.2	5.035
51.42	5.094
51.64	2.772
51.86	3.771
52.08	8.83
52.3	8.635
52.52	7.227
52.74	2.314
52.96	7.268
53.18	0.707
53.4	5.21
53.62	6.303
53.84	4.2
54.06	6.898
54.28	8.621
54.5	1.141
54.72	8.864
54.94	0.917
55.16	4.848
55.38	7.577
55.6	7.311
55.82	8.708
56.04	19.642
56.26	8.064
56.48	24.278
56.7	13.617
56.92	4.983
57.14	7.543
57.36	9.832
57.58	9.147
57.8	4.738
58.02	9.85
58.24	15.577
58.46	8.64
58.68	17.642
58.9	13.452
59.12	9.455
59.34	9.248
59.56	7.921
59.78	0.849
60	3.991
60.22	6.44
60.44	16.36
60.66	13.293
60.88	8.266
61.1	6.002
61.32	6.866
61.54	8.33
61.76	5.484
61.98	1.274
62.2	12.971
62.42	10
62.64	2.913
62.86	5.262
63.08	8.285
63.3	17.291
63.52	5.422
63.74	9.34
63.96	4.793
64.18	3.507
64.4	1.368
64.62	6.515
64.84	3.284
65.06	9.235
65.28	0.356
65.5	1.426
65.72	7.791
65.94	8.665
66.16	11.657
66.38	1.181
66.6	8.644
66.82	8.328
67.04	3.785
67.26	5.542
67.48	2.289
67.7	21.71
67.92	15.267
68.14	4.521
68.36	8.595
68.58	23.389
68.8	15.828
69.02	7.308
69.24	14.783
69.46	8.236
69.68	2.805
69.9	2.42
70.12	7.077
70.34	3.567
70.56	7.367
70.78	1.577
71	5.81
71.22	4.09
71.44	1.932
71.66	3.255
71.88	25.349
72.1	15.415
72.32	5.298
72.54	9.23
72.76	1.097
72.98	4.261
73.2	1.411
73.42	3.384
73.64	9.035
73.86	0.011
74.08	8.062
74.3	11.031
74.52	5.997
74.74	6.866
74.96	4.017
75.18	7.171
75.4	1.296
75.62	15.494
75.84	16.767
76.06	0.955
76.28	3.433
76.5	3.361
76.72	2.774
76.94	11.925
77.16	2.091
77.38	6.183
77.6	8.311
77.82	9.105
78.04	1.062
78.26	3.055
78.48	1.271
78.7	6.155
78.92	11.055
79.14	15.409
79.36	8.477
79.58	2.965
79.8	5.071
80.02	9.08
80.24	1.614
80.46	5.443
80.68	6.338
80.9	6.279
81.12	6.19
81.34	8.035
81.56	0.142
81.78	12.743
82	4.27
82.22	0.369
82.44	4.308
82.66	10.069
82.88	7.105
83.1	3.285
83.32	5.254
83.54	7.579
83.76	9.635
83.98	13.701
84.2	7.869
84.42	14.885
84.64	5.888
84.86	3.061
85.08	5.24
85.3	0.266
85.52	4.179
85.74	8.212
85.96	3.134
86.18	5.299
86.4	4.501
86.62	3.539
86.84	6.63
87.06	4.616
87.28	4.512
87.5	1.798
87.72	5.862
87.94	5.066
88.16	7.124
88.38	5.115
88.6	2.08
88.82	4.923
89.04	6.058
89.26	4.211
89.48	9.027
89.7	3.541
89.92	7.241
