Measurement: Powder, Xray Data XY Processed
Mineral: Pyrope
Rruff sample: R050113
Ideal chemistry: Mg_3_Al_2_(SiO_4_)_3_
Locality: Warsik, Pakistan
Source: Farooq and Nazia Sawal
Description: Reddish-purple fragment
Diffraction sample description: Powder
Measured chemistry: (Mg_1.83_Fe^2+^_1.12_Ca_0.03_Mn_0.02_)_Σ=3_(Al_1.82_Fe^3+^_0.18_)_Σ=2_((Si_0.99_Al_0.01_)_Σ=1_O_4_)_3_
Cell parameters: a: 11.5717(3) b: 11.5717(3) c: 11.5717(3) alpha: 90. beta: 90. gamma: 90. volume: 1549.5(1) crystal system: cubic
x	intensity
5	0
5.22	16.787
5.44	11.426
5.66	8.476
5.88	8.51
6.1	16.158
6.32	27.791
6.54	14.775
6.76	7.879
6.98	15.644
7.2	34.339
7.42	20.236
7.64	3.068
7.86	8.76
8.08	34.847
8.3	16.325
8.52	21.304
8.74	18.54
8.96	12.109
9.18	18.69
9.4	22.58
9.62	18.319
9.84	13.893
10.06	9.3
10.28	9.361
10.5	16.448
10.72	17.431
10.94	15.939
11.16	9.824
11.38	1.288
11.6	31.096
11.82	3.454
12.04	0.249
12.26	17.583
12.48	23.014
12.7	27.423
12.92	7.552
13.14	19.418
13.36	18.091
13.58	0.102
13.8	18.323
14.02	16.047
14.24	11.451
14.46	17.264
14.68	8.384
14.9	27.538
15.12	21.652
15.34	24.145
15.56	21.924
15.78	25.215
16	26.311
16.22	11.736
16.44	8.144
16.66	16.078
16.88	26.886
17.1	21.912
17.32	16.815
17.54	34.978
17.76	10.665
17.98	12.526
18.2	35.034
18.42	18.11
18.64	13.138
18.86	59.777
19.08	24.262
19.3	23.704
19.52	1.3
19.74	15.891
19.96	15.033
20.18	20.815
20.4	19.584
20.62	9.203
20.84	7.475
21.06	6.404
21.28	18.808
21.5	20.123
21.72	10.504
21.94	25.55
22.16	16.902
22.38	4.911
22.6	12.333
22.82	8.801
23.04	18.938
23.26	42.731
23.48	9.272
23.7	18.946
23.92	12.186
24.14	20.824
24.36	18.636
24.58	10.151
24.8	44.017
25.02	11.913
25.24	23.647
25.46	12.435
25.68	14.416
25.9	21.373
26.12	21.232
26.34	10.348
26.56	17.594
26.78	31.45
27	26.896
27.22	0.512
27.44	21.252
27.66	19.799
27.88	10.935
28.1	10.414
28.32	21.175
28.54	31.098
28.76	32
28.98	37.882
29.2	3.988
29.42	26.591
29.64	21.196
29.86	19.785
30.08	12.373
30.3	24.252
30.52	16.153
30.74	25.62
30.96	325.625
31.18	26.293
31.4	13.371
31.62	40.411
31.84	17.686
32.06	1.95
32.28	31.47
32.5	15.438
32.72	23.401
32.94	15.097
33.16	18.277
33.38	4.855
33.6	16.099
33.82	4.344
34.04	10.871
34.26	14.386
34.48	11.512
34.7	978.029
34.92	23.145
35.14	23.375
35.36	13.811
35.58	16.241
35.8	7.384
36.02	19.19
36.24	3.124
36.46	48.16
36.68	9.141
36.9	24.749
37.12	18.462
37.34	9.367
37.56	2.548
37.78	14.425
38	24.214
38.22	97.537
38.44	15.316
38.66	17.06
38.88	5.01
39.1	9.238
39.32	17.154
39.54	17.906
39.76	80.788
39.98	24.41
40.2	22.569
40.42	17.962
40.64	0.62
40.86	18.401
41.08	5.531
41.3	15.797
41.52	19.971
41.74	11.948
41.96	21.105
42.18	22.621
42.4	32.254
42.62	16.546
42.84	169.706
43.06	17.827
43.28	21.745
43.5	29.694
43.72	9.704
43.94	19.644
44.16	6.019
44.38	22.29
44.6	27.54
44.82	11.987
45.04	4.679
45.26	7.12
45.48	5.974
45.7	14.132
45.92	23.465
46.14	21.388
46.36	14.442
46.58	15.177
46.8	22.766
47.02	0.571
47.24	11.73
47.46	9.008
47.68	9.511
47.9	10.556
48.12	12.88
48.34	12.037
48.56	119.778
48.78	6.485
49	9.673
49.22	17.046
49.44	7.843
49.66	9.762
49.88	21.774
50.1	18.166
50.32	20.97
50.54	20.835
50.76	2.41
50.98	1.603
51.2	5.612
51.42	18.592
51.64	21.106
51.86	1.896
52.08	12.201
52.3	14.17
52.52	34.081
52.74	7.855
52.96	1.321
53.18	21.079
53.4	17.083
53.62	30.906
53.84	23.21
54.06	7.78
54.28	20.349
54.5	14.692
54.72	19.797
54.94	15.671
55.16	30.004
55.38	10.675
55.6	9.479
55.82	17.475
56.04	18.771
56.26	9.499
56.48	24.72
56.7	24.105
56.92	29.688
57.14	11.144
57.36	29.612
57.58	99.33
57.8	10.869
58.02	11.769
58.24	25.489
58.46	7.219
58.68	31.28
58.9	28.428
59.12	8.017
59.34	22.601
59.56	11.635
59.78	71.877
60	117.122
60.22	1.57
60.44	36.853
60.66	20.604
60.88	11.254
61.1	23.314
61.32	23.535
61.54	13.99
61.76	26.586
61.98	24.734
62.2	19.922
62.42	5.525
62.64	15.185
62.86	35.811
63.08	39.466
63.3	20.643
63.52	48.534
63.74	6.515
63.96	8.416
64.18	5.389
64.4	117.936
64.62	55.79
64.84	13.121
65.06	23.562
65.28	5.975
65.5	18.883
65.72	29.256
65.94	27.405
66.16	16.86
66.38	21.993
66.6	44.473
66.82	11.266
67.04	35.683
67.26	26.055
67.48	39.251
67.7	36.89
67.92	15.484
68.14	8.215
68.36	11.359
68.58	26.762
68.8	21.389
69.02	13.986
69.24	6.125
69.46	0.1
69.68	17.413
69.9	14.898
70.12	8.983
70.34	19.983
70.56	1.334
70.78	20.779
71	6.469
71.22	17.157
71.44	19.327
71.66	26.797
71.88	34.339
72.1	23.207
72.32	6.999
72.54	12.718
72.76	12.326
72.98	4.369
73.2	46.33
73.42	47.32
73.64	37.63
73.86	11.345
74.08	13.708
74.3	7.587
74.52	14.166
74.74	21.941
74.96	22.765
75.18	44.693
75.4	29.251
75.62	8.878
75.84	29.902
76.06	20.794
76.28	5.728
76.5	0.949
76.72	20.184
76.94	30.962
77.16	13.045
77.38	28.204
77.6	26.081
77.82	1.568
78.04	5.744
78.26	9.838
78.48	8.479
78.7	20.245
78.92	10.611
79.14	8.025
79.36	14.147
79.58	24.722
79.8	10.956
80.02	18.015
80.24	32.542
80.46	27.916
80.68	39.121
80.9	11.847
81.12	15.162
81.34	16.74
81.56	13.614
81.78	20.271
82	35.736
82.22	5.808
82.44	30.663
82.66	22.221
82.88	4.423
83.1	20.936
83.32	20.827
83.54	18.699
83.76	8.651
83.98	26.806
84.2	23.815
84.42	24.534
84.64	20.446
84.86	18.483
85.08	7.185
85.3	17.717
85.52	19.737
85.74	13.397
85.96	22.92
86.18	26.522
86.4	6.343
86.62	20.569
86.84	4.04
87.06	12.829
87.28	26.78
87.5	23.054
87.72	27.48
87.94	15.663
88.16	25.246
88.38	5.696
88.6	15.814
88.82	8.649
89.04	16.752
89.26	60.603
89.48	9.893
89.7	30.484
89.92	41.578
