Measurement: Powder, Xray Data XY Processed
Mineral: Pyrope
Rruff sample: R060441
Ideal chemistry: Mg_3_Al_2_(SiO_4_)_3_
Locality: Apache County, Arizona, USA
Source: Gemological Institute of America
Description: Deep red fragment
Diffraction sample description: Powder
Measured chemistry: (Mg_1.83_Fe_0.75_Ca_0.39_Mn_0.03_)_Σ=3_(Al_1.95_Cr_0.05_)_Σ=2_(Si_1.00_O_4_)_3_
Cell parameters: a: 11.5399(2) b: 11.5399(2) c: 11.5399(2) alpha: 90. beta: 90. gamma: 90. volume: 1536.77(6) crystal system: cubic
x	intensity
5	0
5.22	8.673
5.44	33.225
5.66	19.236
5.88	9.71
6.1	8.893
6.32	6.383
6.54	18.003
6.76	15.872
6.98	10.013
7.2	18.817
7.42	14.357
7.64	29.075
7.86	9.736
8.08	14.621
8.3	9.228
8.52	17.915
8.74	15.548
8.96	12.682
9.18	15.575
9.4	11.739
9.62	21.775
9.84	0.887
10.06	8.754
10.28	2.411
10.5	11.018
10.72	13.274
10.94	4.963
11.16	6.886
11.38	7.876
11.6	6.879
11.82	17.16
12.04	12.413
12.26	16.396
12.48	9.319
12.7	3.269
12.92	8.326
13.14	5.703
13.36	17.435
13.58	0.391
13.8	5.261
14.02	3.316
14.24	3.838
14.46	5.145
14.68	5.281
14.9	18.436
15.12	10.35
15.34	0.208
15.56	6.559
15.78	19.952
16	5.971
16.22	6.411
16.44	22.702
16.66	12.582
16.88	12.476
17.1	15.074
17.32	4.341
17.54	16.357
17.76	8.435
17.98	6.633
18.2	10.693
18.42	13.291
18.64	17.874
18.86	6.585
19.08	7.638
19.3	10.121
19.52	14.478
19.74	10.153
19.96	8.202
20.18	16.833
20.4	16.818
20.62	9.012
20.84	17.212
21.06	6.205
21.28	2.824
21.5	11.167
21.72	8.651
21.94	9.66
22.16	18.975
22.38	15.473
22.6	5.6
22.82	16.735
23.04	13.913
23.26	11.905
23.48	16.748
23.7	6.27
23.92	16.17
24.14	6.778
24.36	9.718
24.58	7.447
24.8	10.075
25.02	9.099
25.24	4.399
25.46	0.25
25.68	7.671
25.9	6.795
26.12	9.866
26.34	3.147
26.56	12.587
26.78	7.43
27	6.27
27.22	16.405
27.44	25.658
27.66	3.971
27.88	24.337
28.1	9.068
28.32	5.343
28.54	11.188
28.76	2.934
28.98	13.013
29.2	18.806
29.42	4.643
29.64	4.317
29.86	4.266
30.08	3.197
30.3	10.058
30.52	10.408
30.74	15.273
30.96	22.791
31.18	34.512
31.4	13.529
31.62	6.81
31.84	6.774
32.06	2.637
32.28	2.362
32.5	14.177
32.72	12.296
32.94	6.842
33.16	13.944
33.38	9.728
33.6	22.507
33.82	5.385
34.04	21.04
34.26	12.985
34.48	13.005
34.7	35.521
34.92	158.165
35.14	30.716
35.36	8.476
35.58	6.032
35.8	9.223
36.02	25.837
36.24	3.516
36.46	11.173
36.68	38.583
36.9	1.949
37.12	19.035
37.34	6.005
37.56	6.897
37.78	1.196
38	19.94
38.22	80.209
38.44	7.871
38.66	20.311
38.88	5.642
39.1	4.37
39.32	17.273
39.54	16.284
39.76	17.491
39.98	52.387
40.2	4.436
40.42	3.431
40.64	5.968
40.86	0.653
41.08	0.552
41.3	2.843
41.52	16.138
41.74	6.195
41.96	14.103
42.18	10.93
42.4	10.012
42.62	5.828
42.84	19.753
43.06	43.971
43.28	10.445
43.5	7.887
43.72	4.802
43.94	5.708
44.16	10.115
44.38	10.413
44.6	22.807
44.82	8.924
45.04	19.567
45.26	16.045
45.48	7.696
45.7	7.136
45.92	21.341
46.14	0.121
46.36	10.042
46.58	8.175
46.8	19.287
47.02	11.015
47.24	7.953
47.46	21.458
47.68	13.149
47.9	9.097
48.12	5.974
48.34	16.366
48.56	16.179
48.78	58.383
49	13.515
49.22	23.306
49.44	7.113
49.66	8.192
49.88	17.364
50.1	7.6
50.32	24.131
50.54	4.061
50.76	16.449
50.98	10.113
51.2	16.198
51.42	13.21
51.64	19.429
51.86	9.525
52.08	0.444
52.3	3.415
52.52	14.629
52.74	5.947
52.96	2.055
53.18	16.5
53.4	11.291
53.62	10.349
53.84	5.115
54.06	5.564
54.28	11.388
54.5	3.147
54.72	0.006
54.94	19.417
55.16	121.922
55.38	16.079
55.6	9.901
55.82	2.659
56.04	2.54
56.26	9.276
56.48	5.884
56.7	0.233
56.92	1.618
57.14	20.957
57.36	9.297
57.58	102.281
57.8	56.729
58.02	12.055
58.24	9.31
58.46	10.628
58.68	7.666
58.9	12.826
59.12	6.033
59.34	2.163
59.56	14.527
59.78	6.937
60	300.068
60.22	54.316
60.44	9.953
60.66	16.097
60.88	2.953
61.1	10.045
61.32	16.309
61.54	15.408
61.76	9.204
61.98	6.127
62.2	20.829
62.42	17.587
62.64	22.973
62.86	10.274
63.08	19.404
63.3	8.568
63.52	16.544
63.74	8.022
63.96	16.349
64.18	5.457
64.4	2.376
64.62	48.345
64.84	13.197
65.06	10.245
65.28	15.724
65.5	8.585
65.72	28.446
65.94	14.535
66.16	7.114
66.38	7.867
66.6	7.662
66.82	9.211
67.04	6.84
67.26	4.862
67.48	2.287
67.7	2.486
67.92	12.45
68.14	14.595
68.36	6.904
68.58	10.805
68.8	0.286
69.02	5.846
69.24	7.533
69.46	12.088
69.68	9.988
69.9	5.431
70.12	14.428
70.34	0.512
70.56	4.858
70.78	20.4
71	21.309
71.22	5.451
71.44	10.742
71.66	1.599
71.88	11.044
72.1	11.002
72.32	26.034
72.54	2.979
72.76	7.131
72.98	19.863
73.2	15.986
73.42	31.905
73.64	27.96
73.86	19.67
74.08	17.542
74.3	5.306
74.52	10.955
74.74	7.706
74.96	12.259
75.18	11.914
75.4	4.411
75.62	31.294
75.84	3.322
76.06	3.631
76.28	19.72
76.5	5.618
76.72	16.651
76.94	8.71
77.16	3.5
77.38	11.213
77.6	23.509
77.82	31.794
78.04	5.026
78.26	13.615
78.48	1.343
78.7	11.117
78.92	12.028
79.14	12.829
79.36	1.088
79.58	6.445
79.8	27.887
80.02	5.077
80.24	1.39
80.46	4.634
80.68	19.73
80.9	8.467
81.12	12.792
81.34	7.27
81.56	18.394
81.78	11.428
82	3.272
82.22	13.955
82.44	15.852
82.66	12.648
82.88	12.056
83.1	20.306
83.32	0.151
83.54	6.677
83.76	13.226
83.98	9.519
84.2	16.025
84.42	6.517
84.64	5.503
84.86	11.592
85.08	9.542
85.3	1.608
85.52	5.104
85.74	18.796
85.96	20.877
86.18	15.022
86.4	8.769
86.62	14.592
86.84	2.487
87.06	22.11
87.28	23.121
87.5	7.521
87.72	6.762
87.94	13.343
88.16	27.586
88.38	16.67
88.6	4.308
88.82	17.779
89.04	4.68
89.26	20.439
89.48	11.116
89.7	18.336
89.92	15.338
