Measurement: Powder, Xray Data XY Processed
Mineral: Pyroxmangite
Rruff sample: R060999
Ideal chemistry: Mn^2+^SiO_3_
Locality: Yokoneyama, Tochigi, Japan
Source: Michael Scott
Description: Pink bladed crystals frozen in matrix associated with protomangano-ferro-anthophyllite R061000
Diffraction sample description: Powder, cell parameters are from single crystal
Measured chemistry: (Mn^2+^_0.61_Fe^2+^_0.27_Mg_0.09_Ca_0.03_)_Î£=1_Si_1.00_O_3_
Cell parameters: a: 9.667(1) b: 10.474(1) c: 17.382(2) alpha: 112.198(6) beta: 103.017(6) gamma: 82.839(6) volume: 1586.3(5) crystal system: triclinic
x	intensity
5	0
5.22	8.10594
5.44	13.928
5.66	18.7368
5.88	11.6886
6.1	17.0495
6.32	11.4337
6.54	16.3002
6.76	7.23155
6.98	12.3232
7.2	1.53638
7.42	9.20505
7.64	15.6728
7.86	9.91758
8.08	10.922
8.3	16.0116
8.52	13.0684
8.74	11.7443
8.96	6.63523
9.18	14.2845
9.4	9.50629
9.62	1.54421
9.84	16.522
10.06	15.0783
10.28	2.64496
10.5	14.8005
10.72	4.03542
10.94	8.19455
11.16	15.0657
11.38	27.7851
11.6	14.6662
11.82	11.5439
12.04	7.58339
12.26	8.55019
12.48	10.0941
12.7	5.8789
12.92	64.0825
13.14	10.0124
13.36	13.8773
13.58	13.6158
13.8	0.447315
14.02	4.81995
14.24	4.78973
14.46	15.1879
14.68	15.4299
14.9	4.58812
15.12	17.572
15.34	7.31136
15.56	16.0009
15.78	11.6421
16	17.5707
16.22	4.57631
16.44	10.4123
16.66	14.7458
16.88	1.95877
17.1	0.838036
17.32	9.95534
17.54	11.9134
17.76	13.751
17.98	11.456
18.2	9.36231
18.42	13.2086
18.64	14.3026
18.86	15.2666
19.08	11.8982
19.3	3.07651
19.52	3.56987
19.74	12.654
19.96	11.7966
20.18	2.93396
20.4	6.78578
20.62	7.73047
20.84	12.3261
21.06	5.26663
21.28	23.2314
21.5	18.5239
21.72	10.4337
21.94	8.04569
22.16	5.09227
22.38	0.812763
22.6	9.05671
22.82	1.93993
23.04	9.37183
23.26	20.5219
23.48	9.12603
23.7	3.27279
23.92	7.25467
24.14	21.9535
24.36	7.03592
24.58	9.93242
24.8	15.8476
25.02	22.7165
25.24	2.2892
25.46	6.66163
25.68	1.55501
25.9	46.4257
26.12	14.925
26.34	0.913555
26.56	21.662
26.78	18.1612
27	2.58191
27.22	2.45221
27.44	5.50264
27.66	18.1959
27.88	14.5301
28.1	5.30528
28.32	25.2055
28.54	9.71049
28.76	37.736
28.98	7.98605
29.2	17.9854
29.42	3.59918
29.64	19.3118
29.86	10.0855
30.08	2.48743
30.3	38.1363
30.52	8.08307
30.74	0.481094
30.96	10.9676
31.18	7.51709
31.4	10.6273
31.62	3.30457
31.84	1.35741
32.06	19.5333
32.28	16.9919
32.5	23.6793
32.72	12.8461
32.94	15.6678
33.16	11.1459
33.38	11.3145
33.6	11.0109
33.82	2.72627
34.04	3.18173
34.26	11.9076
34.48	21.098
34.7	45.9337
34.92	14.8155
35.14	4.74868
35.36	16.0008
35.58	14.5467
35.8	0.603573
36.02	9.96767
36.24	7.11666
36.46	12.5875
36.68	5.64253
36.9	1.90183
37.12	14.7796
37.34	20.5886
37.56	8.44266
37.78	8.20653
38	5.30842
38.22	8.15846
38.44	15.9437
38.66	6.88089
38.88	8.07037
39.1	2.46741
39.32	1.45724
39.54	17.1751
39.76	16.7277
39.98	8.55583
40.2	9.25057
40.42	5.06208
40.64	1.37979
40.86	14.8717
41.08	24.577
41.3	22.3621
41.52	20.5398
41.74	15.1995
41.96	18.4075
42.18	15.6521
42.4	10.0766
42.62	5.79962
42.84	23.0148
43.06	5.31107
43.28	11.2119
43.5	0.9282
43.72	9.48988
43.94	14.0414
44.16	28.161
44.38	7.73524
44.6	3.52983
44.82	4.04513
45.04	23.5525
45.26	10.5563
45.48	9.9433
45.7	13.8271
45.92	8.84998
46.14	20.7787
46.36	9.51763
46.58	6.77605
46.8	15.8843
47.02	20.8257
47.24	13.7286
47.46	7.71566
47.68	13.3586
47.9	4.35348
48.12	1.32328
48.34	4.04495
48.56	14.3533
48.78	14.3608
49	5.62624
49.22	16.8976
49.44	7.98269
49.66	17.1107
49.88	16.1727
50.1	15.378
50.32	15.3266
50.54	11.921
50.76	15.6749
50.98	21.354
51.2	18.221
51.42	5.79172
51.64	11.5358
51.86	0.986774
52.08	3.09454
52.3	19.8093
52.52	11.6885
52.74	13.0272
52.96	20.0741
53.18	8.95114
53.4	0.356121
53.62	16.1609
53.84	8.07296
54.06	5.62994
54.28	24.0528
54.5	21.1131
54.72	5.13348
54.94	20.9154
55.16	8.51418
55.38	24.2279
55.6	1.52913
55.82	8.63554
56.04	0.079723
56.26	16.2005
56.48	7.84605
56.7	11.9433
56.92	12.7828
57.14	28.5835
57.36	1.75751
57.58	10.6802
57.8	11.7172
58.02	4.2381
58.24	17.9664
58.46	17.6948
58.68	14.9188
58.9	9.34443
59.12	0.080536
59.34	12.4421
59.56	16.6065
59.78	14.6441
60	11.7731
60.22	7.34767
60.44	11.3269
60.66	15.4219
60.88	11.1546
61.1	13.0996
61.32	12.4369
61.54	1.92255
61.76	1.1686
61.98	10.9866
62.2	0.826313
62.42	17.8009
62.64	21.5222
62.86	2.17605
63.08	8.18143
63.3	7.01698
63.52	22.9559
63.74	9.73507
63.96	12.5416
64.18	20.9334
64.4	17.6733
64.62	2.62938
64.84	10.4457
65.06	11.1382
65.28	8.69014
65.5	28.7162
65.72	22.1957
65.94	11.7593
66.16	16.7348
66.38	18.1632
66.6	7.25615
66.82	19.5085
67.04	1.57093
67.26	0.083286
67.48	1.90857
67.7	13.3709
67.92	18.3536
68.14	10.0564
68.36	13.0917
68.58	15.2837
68.8	2.98862
69.02	14.0795
69.24	32.9456
69.46	16.9971
69.68	18.1114
69.9	18.405
70.12	4.50121
70.34	2.54071
70.56	11.5455
70.78	21.3279
71	4.36391
71.22	1.73566
71.44	23.7291
71.66	8.69512
71.88	17.7593
72.1	23.8617
72.32	8.50882
72.54	15.3584
72.76	26.6014
72.98	22.5797
73.2	15.7358
73.42	23.4238
73.64	0.44841
73.86	22.4559
74.08	20.8932
74.3	4.67002
74.52	6.80854
74.74	12.6104
74.96	5.13502
75.18	15.8037
75.4	3.71801
75.62	19.5987
75.84	26.1595
76.06	3.97477
76.28	12.6477
76.5	7.15007
76.72	6.3965
76.94	21.1994
77.16	29.1429
77.38	8.92657
77.6	9.902
77.82	13.0068
78.04	5.76507
78.26	13.4518
78.48	12.9724
78.7	7.08551
78.92	5.48579
79.14	11.3661
79.36	16.4586
79.58	1.47556
79.8	2.96488
80.02	6.95855
80.24	5.63541
80.46	20.6016
80.68	12.4784
80.9	3.53371
81.12	17.6627
81.34	2.8153
81.56	18.1099
81.78	20.8205
82	15.9923
82.22	12.1627
82.44	14.2948
82.66	1.64619
82.88	22.8689
83.1	15.0682
83.32	3.34315
83.54	15.304
83.76	26.8975
83.98	19.1335
84.2	3.72607
84.42	2.61216
84.64	20.7437
84.86	3.56127
85.08	16.3316
85.3	13.1303
85.52	16.4479
85.74	5.48079
85.96	15.0017
86.18	8.88927
86.4	18.3034
86.62	23.1079
86.84	14.1933
87.06	13.0956
87.28	17.0889
87.5	21.3448
87.72	6.64757
87.94	15.1227
88.16	18.0197
88.38	19.428
88.6	1.92944
88.82	13.4983
89.04	12.3357
89.26	8.77326
89.48	5.36089
89.7	0.202541
89.92	10.1749
