Measurement: Powder, Xray Data XY Processed
Mineral: Pyrochlore
Rruff sample: R080058
Ideal chemistry: Ca_2_Nb_2_O_7_
Locality: Samiresy, Madagascar
Source: Michael Scott
Description: Orange octahedron, amorphous
Diffraction sample description: Powder
x	intensity
5	0
5.22	24.1548
5.44	0.828709
5.66	1.4569
5.88	5.51457
6.1	1.09288
6.32	1.65327
6.54	22.3903
6.76	22.4031
6.98	2.24158
7.2	10.2744
7.42	8.45914
7.64	17.9302
7.86	13.1786
8.08	10.6356
8.3	11.7603
8.52	12.5615
8.74	10.5045
8.96	5.84156
9.18	22.42
9.4	7.5047
9.62	0.471516
9.84	22.4717
10.06	12.3448
10.28	6.20058
10.5	9.02912
10.72	11.9244
10.94	18.5373
11.16	7.52487
11.38	11.465
11.6	5.50454
11.82	6.27997
12.04	0.394211
12.26	15.9686
12.48	10.0381
12.7	8.42697
12.92	0.673489
13.14	14.1556
13.36	10.5898
13.58	9.14318
13.8	1.52466
14.02	16.8044
14.24	3.11026
14.46	11.9477
14.68	18.5584
14.9	10.7781
15.12	12.2159
15.34	7.36722
15.56	11.2817
15.78	9.48691
16	16.5789
16.22	10.6799
16.44	15.1758
16.66	10.2138
16.88	4.91077
17.1	11.8572
17.32	10.7735
17.54	3.50693
17.76	10.0993
17.98	3.8318
18.2	13.1049
18.42	4.64603
18.64	18.4388
18.86	16.5897
19.08	14.2683
19.3	7.71388
19.52	6.33056
19.74	17.8528
19.96	6.53366
20.18	6.53541
20.4	4.13245
20.62	6.72717
20.84	9.5491
21.06	12.2686
21.28	15.1384
21.5	7.15588
21.72	12.9155
21.94	9.46795
22.16	2.48211
22.38	7.58265
22.6	3.0513
22.82	6.58181
23.04	15.8965
23.26	2.16838
23.48	5.49887
23.7	11.6902
23.92	3.66559
24.14	11.9691
24.36	16.3121
24.58	9.4268
24.8	13.3632
25.02	12.5086
25.24	16.0504
25.46	14.7077
25.68	5.71271
25.9	18.319
26.12	9.49987
26.34	15.5433
26.56	17.2571
26.78	15.988
27	20.8734
27.22	8.59462
27.44	11.1218
27.66	13.5898
27.88	8.55373
28.1	8.24686
28.32	16.2393
28.54	20.6267
28.76	24.4311
28.98	9.32801
29.2	20.4764
29.42	15.8601
29.64	18.2832
29.86	16.6165
30.08	8.86237
30.3	21.1957
30.52	0.74229
30.74	6.65304
30.96	14.4107
31.18	9.01426
31.4	30.6405
31.62	10.7289
31.84	20.1968
32.06	15.9204
32.28	18.964
32.5	17.4611
32.72	9.56578
32.94	11.7811
33.16	10.8139
33.38	17.4222
33.6	6.17905
33.82	12.0728
34.04	23.738
34.26	10.9076
34.48	6.50553
34.7	10.7448
34.92	15.9299
35.14	12.5898
35.36	12.2935
35.58	3.565
35.8	7.33516
36.02	7.90716
36.24	7.35235
36.46	8.23828
36.68	2.58236
36.9	10.8018
37.12	1.19172
37.34	11.7971
37.56	12.0945
37.78	13.6851
38	6.01287
38.22	5.07513
38.44	5.15853
38.66	0.579273
38.88	5.76942
39.1	8.80214
39.32	7.94691
39.54	7.8215
39.76	14.3294
39.98	7.23973
40.2	11.2267
40.42	9.13578
40.64	6.02175
40.86	3.2312
41.08	4.00336
41.3	15.6244
41.52	3.53733
41.74	3.33993
41.96	3.3097
42.18	8.92942
42.4	7.81934
42.62	10.478
42.84	21.3306
43.06	11.272
43.28	3.75499
43.5	26.638
43.72	7.54533
43.94	0.349312
44.16	12.2022
44.38	17.0454
44.6	12.8687
44.82	8.77932
45.04	7.35253
45.26	1.53856
45.48	2.68524
45.7	7.78327
45.92	6.66868
46.14	3.52967
46.36	5.58751
46.58	7.16318
46.8	3.08998
47.02	13.6658
47.24	17.9827
47.46	23.1002
47.68	14.6481
47.9	20.0238
48.12	6.65324
48.34	15.4638
48.56	14.3631
48.78	19.3853
49	11.5098
49.22	9.09907
49.44	18.6699
49.66	15.1937
49.88	7.69029
50.1	8.8835
50.32	5.20449
50.54	9.47958
50.76	5.07231
50.98	2.25071
51.2	12.4943
51.42	7.70587
51.64	4.26702
51.86	7.64107
52.08	5.62888
52.3	1.39156
52.52	3.60095
52.74	6.63837
52.96	22.7371
53.18	7.47187
53.4	4.52855
53.62	14.5536
53.84	17.2446
54.06	4.84241
54.28	10.4777
54.5	7.88644
54.72	18.5053
54.94	0.848541
55.16	11.4633
55.38	0.036592
55.6	2.32932
55.82	10.4574
56.04	11.8369
56.26	7.16117
56.48	9.23892
56.7	13.3597
56.92	6.84734
57.14	7.68689
57.36	14.521
57.58	6.15764
57.8	18.0658
58.02	5.32646
58.24	9.51819
58.46	11.4883
58.68	13.36
58.9	6.14654
59.12	8.143
59.34	1.1342
59.56	7.15498
59.78	6.86092
60	8.82606
60.22	1.86946
60.44	9.15912
60.66	10.4742
60.88	10.5613
61.1	9.24716
61.32	3.48918
61.54	11.7169
61.76	12.726
61.98	2.99037
62.2	5.12336
62.42	5.33134
62.64	3.29341
62.86	5.95123
63.08	3.83498
63.3	12.4434
63.52	11.7234
63.74	2.98406
63.96	3.98367
64.18	12.2592
64.4	11.8571
64.62	12.3424
64.84	6.70071
65.06	5.81896
65.28	9.56744
65.5	9.70664
65.72	13.5046
65.94	8.73821
66.16	8.62187
66.38	0.384201
66.6	16.1559
66.82	2.37952
67.04	15.4901
67.26	19.4944
67.48	7.45007
67.7	6.69742
67.92	7.84531
68.14	13.8554
68.36	1.75331
68.58	7.76896
68.8	6.7645
69.02	10.9311
69.24	5.7548
69.46	9.36581
69.68	5.27158
69.9	3.27293
70.12	0.345432
70.34	10.665
70.56	4.61806
70.78	1.75687
71	8.99009
71.22	6.2968
71.44	13.267
71.66	1.26421
71.88	8.32218
72.1	7.28075
72.32	5.16503
72.54	2.91282
72.76	0.143078
72.98	16.1092
73.2	12.2914
73.42	0.627776
73.64	8.92634
73.86	9.02702
74.08	11.279
74.3	9.59273
74.52	4.85806
74.74	3.18558
74.96	8.41829
75.18	13.9328
75.4	8.83478
75.62	0.954782
75.84	16.6874
76.06	9.47296
76.28	15.3634
76.5	8.18119
76.72	2.87611
76.94	14.0551
77.16	7.16368
77.38	5.43595
77.6	9.91462
77.82	4.8026
78.04	5.53443
78.26	6.19171
78.48	9.36462
78.7	0.412512
78.92	11.6042
79.14	5.98214
79.36	0.347289
79.58	2.25777
79.8	0.933081
80.02	9.64771
80.24	6.85353
80.46	5.24879
80.68	15.3349
80.9	15.2477
81.12	3.82954
81.34	9.1734
81.56	9.12649
81.78	14.0594
82	11.0104
82.22	11.2302
82.44	2.88632
82.66	10.936
82.88	9.64681
83.1	10.6955
83.32	11.0763
83.54	1.12127
83.76	9.29098
83.98	7.36453
84.2	7.58742
84.42	6.72072
84.64	13.5223
84.86	2.39509
85.08	6.514
85.3	6.5035
85.52	4.61019
85.74	5.4695
85.96	7.51278
86.18	5.54495
86.4	11.71
86.62	6.69696
86.84	11.821
87.06	8.90986
87.28	7.04142
87.5	0.016755
87.72	8.22316
87.94	3.44928
88.16	9.29693
88.38	7.46564
88.6	0.910856
88.82	3.13343
89.04	12.1571
89.26	8.27967
89.48	0.839929
89.7	2.83455
89.92	20.101
