Measurement: Powder, Xray Data XY Processed
Mineral: Pyrochlore
Rruff sample: R060151
Ideal chemistry: Ca_2_Nb_2_O_7_
Locality: Oka, Quebec, Canada
Source: Marcus Origlieri
Description: Reddish-brown octahedral crystals associated with calcite
Diffraction sample description: Powder
Measured chemistry: (Ca_1.41_Na_0.59_)_Σ=2_(Nb_1.49_Ti_0.26_Ce_0.15_Fe^3+^_0.05_La_0.02_Nd_0.02_Mn_0.02_)_Σ=2_(O_5.40_(OH)_1.10_F_0.50_)_Σ=7_
Cell parameters: a: 10.3914(2) b: 10.3914(2) c: 10.3914(2) alpha: 90 beta: 90 gamma: 90 volume: 1122.08(6) crystal system: cubic
x	intensity
5	0
5.22	6.791
5.44	3.479
5.66	3.916
5.88	3.479
6.1	6.348
6.32	12.243
6.54	11.902
6.76	8.704
6.98	5.687
7.2	0.731
7.42	3.108
7.64	6.244
7.86	4.668
8.08	1.014
8.3	0.385
8.52	2.498
8.74	3.603
8.96	6.704
9.18	8.81
9.4	7.823
9.62	0.336
9.84	4.699
10.06	3.619
10.28	2.303
10.5	0.118
10.72	9.862
10.94	9.907
11.16	1.763
11.38	2.601
11.6	7.409
11.82	3.297
12.04	2.222
12.26	0.984
12.48	2.919
12.7	3.834
12.92	7.999
13.14	4.056
13.36	6.803
13.58	8.801
13.8	2.834
14.02	1.881
14.24	2.913
14.46	0.019
14.68	9.207
14.9	19.39
15.12	8.491
15.34	7.536
15.56	6.461
15.78	0.714
16	2.827
16.22	0.024
16.44	11.11
16.66	4.309
16.88	6.346
17.1	10.298
17.32	7.17
17.54	0.176
17.76	3.112
17.98	7.118
18.2	2.965
18.42	5.983
18.64	0.035
18.86	4.949
19.08	4.816
19.3	1.168
19.52	10.636
19.74	11.633
19.96	5.69
20.18	1.755
20.4	0.172
20.62	1.005
20.84	7.989
21.06	3.201
21.28	6.438
21.5	3.706
21.72	9.684
21.94	4.649
22.16	11.511
22.38	3.411
22.6	8.233
22.82	5.014
23.04	4.703
23.26	0.615
23.48	4.608
23.7	1.294
23.92	4.102
24.14	1.326
24.36	0.601
24.58	1.375
24.8	4.3
25.02	3.326
25.24	5.513
25.46	4.622
25.68	9.599
25.9	9.502
26.12	4.684
26.34	2.501
26.56	4.418
26.78	7.701
27	12.566
27.22	4.374
27.44	5.041
27.66	4.505
27.88	0.842
28.1	9.571
28.32	0.904
28.54	148.479
28.76	17.95
28.98	9.502
29.2	1.881
29.42	3.85
29.64	29.023
29.86	616.641
30.08	38.887
30.3	12.341
30.52	1.199
30.74	2.797
30.96	1.238
31.18	2.431
31.4	0.864
31.62	6.426
31.84	7.676
32.06	1.904
32.28	3.6
32.5	4.743
32.72	2.45
32.94	3.796
33.16	3.849
33.38	5.499
33.6	2.349
33.82	2.273
34.04	5.949
34.26	5.944
34.48	20.765
34.7	32.874
34.92	5.287
35.14	4.626
35.36	5.756
35.58	1.842
35.8	7.034
36.02	0.208
36.24	1.4
36.46	2.605
36.68	3.595
36.9	7.686
37.12	6.698
37.34	5.892
37.56	5.702
37.78	7.492
38	4.706
38.22	1.763
38.44	1.196
38.66	0.092
38.88	2.014
39.1	8.249
39.32	5.335
39.54	6.127
39.76	4.905
39.98	5.952
40.2	5.745
40.42	1.018
40.64	5.964
40.86	9.028
41.08	0.902
41.3	6.926
41.52	7.746
41.74	0.687
41.96	1.683
42.18	2.084
42.4	2.85
42.62	10.102
42.84	12.888
43.06	2.973
43.28	1.138
43.5	6.626
43.72	1.766
43.94	4.721
44.16	2.648
44.38	8.558
44.6	15.271
44.82	1.23
45.04	4.206
45.26	3.264
45.48	10.348
45.7	5.323
45.92	5.234
46.14	5.192
46.36	11.14
46.58	4.285
46.8	8.264
47.02	10.149
47.24	7.226
47.46	3.949
47.68	2.999
47.9	0.736
48.12	1.607
48.34	3.354
48.56	2.093
48.78	6.784
49	6.588
49.22	1.421
49.44	13.181
49.66	294.178
49.88	25.983
50.1	5.216
50.32	11.267
50.54	4.488
50.76	3.598
50.98	4.703
51.2	0.206
51.42	5.003
51.64	3.198
51.86	1.283
52.08	18.218
52.3	5.904
52.52	3.102
52.74	12.397
52.96	2.6
53.18	9.73
53.4	3.867
53.62	2.158
53.84	3.341
54.06	1.393
54.28	6.62
54.5	4.696
54.72	0.725
54.94	6.595
55.16	5.412
55.38	9.352
55.6	3.435
55.82	6.315
56.04	10.242
56.26	3.016
56.48	4.785
56.7	6.765
56.92	0.584
57.14	4.354
57.36	1.355
57.58	4.089
57.8	2.52
58.02	3.268
58.24	21.129
58.46	6.848
58.68	3.824
58.9	56.894
59.12	79.01
59.34	10.247
59.56	7.603
59.78	6.765
60	3.074
60.22	4.397
60.44	7.568
60.66	5.699
60.88	3.764
61.1	3.632
61.32	4.726
61.54	2.715
61.76	4.546
61.98	25.381
62.2	3.512
62.42	0.557
62.64	3.497
62.86	10.811
63.08	7.928
63.3	3.234
63.52	5.322
63.74	7.515
63.96	15.492
64.18	11.674
64.4	0.925
64.62	0.738
64.84	5.9
65.06	10.837
65.28	4.06
65.5	6.185
65.72	2.072
65.94	8.134
66.16	2.08
66.38	8.277
66.6	8.225
66.82	5.163
67.04	2.041
67.26	7.036
67.48	2.964
67.7	4.96
67.92	4.109
68.14	9.991
68.36	2.945
68.58	13.912
68.8	1.692
69.02	4.619
69.24	4.613
69.46	19.672
69.68	15.766
69.9	5.907
70.12	4.869
70.34	2.717
70.56	1.837
70.78	0.877
71	4.038
71.22	2.06
71.44	5.171
71.66	5.162
71.88	1.939
72.1	3.965
72.32	1.951
72.54	1.877
72.76	13.812
72.98	9.858
73.2	10.935
73.42	0.149
73.64	0.205
73.86	1.2
74.08	3.34
74.3	6.542
74.52	2.613
74.74	2.452
74.96	8.499
75.18	3.496
75.4	5.482
75.62	2.512
75.84	2.394
76.06	3.083
76.28	5.09
76.5	3.981
76.72	1.203
76.94	4.666
77.16	5.993
77.38	3.95
77.6	2.126
77.82	3.971
78.04	1.977
78.26	8.99
78.48	1.959
78.7	3.839
78.92	4.695
79.14	0.128
79.36	6.585
79.58	5.155
79.8	5.9
80.02	9.672
80.24	3.567
80.46	16.529
80.68	25.445
80.9	26.428
81.12	4.505
81.34	2.821
81.56	1.531
81.78	2.666
82	4.715
82.22	11.763
82.44	0.228
82.66	3.904
82.88	1.989
83.1	32.021
83.32	23.076
83.54	6.018
83.76	0.097
83.98	5.087
84.2	2.318
84.42	6.355
84.64	2.422
84.86	4.582
85.08	1.688
85.3	7.56
85.52	2.478
85.74	4.766
85.96	2.778
86.18	9.676
86.4	1.768
86.62	7.738
86.84	4.807
87.06	7.861
87.28	2.85
87.5	0.765
87.72	1.921
87.94	5.096
88.16	1.191
88.38	2.385
88.6	7.403
88.82	1.601
89.04	3.777
89.26	9.16
89.48	1.393
89.7	6.402
89.92	7.703
