Measurement: Powder, Xray Data XY Processed
Mineral: Pyromorphite
Rruff sample: R050015
Ideal chemistry: Pb^2+^_5_(PO_4_)_3_Cl
Locality: Bunker Hill mine, Shoshone County, Idaho, USA
Source: Eugene Schlepp
Description: Yellowish green prismatic hexagonal single crystals
Diffraction sample description: Powder
Measured chemistry: Pb_5.00_((P_0.88_As_0.12_)O_4_)_3_Cl_1.00_
Cell parameters: a: 10.0268(3) b: 10.0268(3) c: 7.3607(3) alpha: 90. beta: 90. gamma: 120. volume: 640.89(4) crystal system: hexagonal
x	intensity
5	0
5.22	3.197
5.44	5.846
5.66	4.329
5.88	6.103
6.1	6.018
6.32	19.255
6.54	11.279
6.76	11.495
6.98	7.555
7.2	3.942
7.42	2.342
7.64	6.452
7.86	6.655
8.08	5.766
8.3	3.908
8.52	8.834
8.74	2.535
8.96	0.267
9.18	1.074
9.4	10.723
9.62	4.308
9.84	1.992
10.06	4.172
10.28	5.24
10.5	6.29
10.72	4.36
10.94	6.476
11.16	6.63
11.38	4.808
11.6	4.967
11.82	2.044
12.04	11.26
12.26	3.263
12.48	6.176
12.7	1.914
12.92	4.894
13.14	3.819
13.36	4.983
13.58	4.978
13.8	9.081
14.02	5.047
14.24	5.323
14.46	4.235
14.68	0.271
14.9	3.179
15.12	4.422
15.34	4.495
15.56	6.49
15.78	6.384
16	9.427
16.22	5.354
16.44	4.277
16.66	4.909
16.88	2.88
17.1	3.744
17.32	7.441
17.54	5.268
17.76	47.154
17.98	1.977
18.2	1.116
18.42	3.225
18.64	2.139
18.86	3.072
19.08	2.947
19.3	4.319
19.52	0.506
19.74	12.475
19.96	4.287
20.18	6.011
20.4	22.681
20.62	10.307
20.84	1.06
21.06	4.154
21.28	7.165
21.5	247.216
21.72	16.858
21.94	7.984
22.16	3.982
22.38	6.438
22.6	6.566
22.82	2.289
23.04	1.554
23.26	2.557
23.48	3.733
23.7	5.317
23.92	6.72
24.14	7.027
24.36	12.147
24.58	5.064
24.8	5.651
25.02	4.386
25.24	7.068
25.46	0.179
25.68	2.616
25.9	6.367
26.12	7.746
26.34	193.517
26.56	10.838
26.78	7.661
27	12.164
27.22	188.726
27.44	13.24
27.66	6.592
27.88	10.754
28.1	4.539
28.32	8.267
28.54	1.65
28.76	7.853
28.98	5.64
29.2	2.647
29.42	3.181
29.64	15.708
29.86	396.512
30.08	178.806
30.3	121.46
30.52	11.791
30.74	14.023
30.96	278.841
31.18	4.46
31.4	0.528
31.62	6.568
31.84	3.57
32.06	6.621
32.28	3.554
32.5	4.299
32.72	7.714
32.94	3
33.16	0.682
33.38	15.994
33.6	6.466
33.82	1.688
34.04	5.733
34.26	4.97
34.48	5.895
34.7	10.834
34.92	3.808
35.14	9.767
35.36	7.765
35.58	10.455
35.8	12.186
36.02	4.361
36.24	2.29
36.46	3.401
36.68	6.447
36.9	6.543
37.12	3.288
37.34	4.946
37.56	0.969
37.78	9.241
38	3.317
38.22	0.779
38.44	3.017
38.66	2.919
38.88	2.782
39.1	1.931
39.32	12.15
39.54	14.933
39.76	10.794
39.98	0.623
40.2	2.746
40.42	3.056
40.64	5.856
40.86	16.064
41.08	31.914
41.3	3.849
41.52	10.523
41.74	14.208
41.96	5.417
42.18	0.287
42.4	13.147
42.62	1.047
42.84	1.74
43.06	8.596
43.28	2.528
43.5	16.528
43.72	174.876
43.94	18.243
44.16	1.678
44.38	9.508
44.6	1.935
44.82	12.52
45.04	54.024
45.26	9.578
45.48	19.981
45.7	37.698
45.92	0.874
46.14	49.984
46.36	58.888
46.58	9.57
46.8	5.563
47.02	13.485
47.24	65.345
47.46	34.315
47.68	12.337
47.9	14.194
48.12	135.908
48.34	0.599
48.56	14.823
48.78	75.29
49	0.403
49.22	4.053
49.44	13.83
49.66	30.611
49.88	4.429
50.1	1.613
50.32	3.429
50.54	0.422
50.76	1.154
50.98	10.933
51.2	10.064
51.42	0.958
51.64	8.045
51.86	3.921
52.08	3.703
52.3	2.414
52.52	2.959
52.74	1.945
52.96	7.698
53.18	15.232
53.4	4.851
53.62	5.877
53.84	1.282
54.06	7.489
54.28	12.964
54.5	19.619
54.72	11.675
54.94	11.243
55.16	5.193
55.38	4.276
55.6	2.345
55.82	6.656
56.04	25.579
56.26	7.596
56.48	20.604
56.7	17.735
56.92	2.595
57.14	12.147
57.36	31.59
57.58	17.337
57.8	14.056
58.02	7.736
58.24	0.081
58.46	0.443
58.68	12.064
58.9	18.608
59.12	7.609
59.34	13.135
59.56	66.238
59.78	60.563
60	13.638
60.22	2.645
60.44	3.824
60.66	42.445
60.88	49.934
61.1	12.697
61.32	10.201
61.54	5.53
61.76	2.898
61.98	4.599
62.2	11.043
62.42	2.071
62.64	15.269
62.86	9.244
63.08	8.211
63.3	2.232
63.52	2.317
63.74	4.459
63.96	7.879
64.18	10.057
64.4	6.112
64.62	1.399
64.84	9.441
65.06	6.216
65.28	10.099
65.5	1.953
65.72	10.759
65.94	3.739
66.16	20.517
66.38	9.939
66.6	8.635
66.82	9.07
67.04	1.533
67.26	4.197
67.48	18.792
67.7	8.361
67.92	6.999
68.14	4.261
68.36	3.646
68.58	16.139
68.8	16.652
69.02	6.982
69.24	9.567
69.46	11.452
69.68	24.021
69.9	27.619
70.12	24.263
70.34	8.805
70.56	8.785
70.78	9.541
71	1.481
71.22	12.002
71.44	51.229
71.66	34.594
71.88	11.507
72.1	1.477
72.32	6.951
72.54	29.695
72.76	36.628
72.98	19.559
73.2	1.628
73.42	0
73.64	2.473
73.86	1.919
74.08	0.247
74.3	5.698
74.52	3.478
74.74	0.872
74.96	5.835
75.18	5.612
75.4	5.473
75.62	8.735
75.84	20.417
76.06	22.212
76.28	6.509
76.5	12.449
76.72	5.207
76.94	10.887
77.16	10.831
77.38	9.089
77.6	0.076
77.82	10.968
78.04	10.414
78.26	19.359
78.48	2.57
78.7	1.951
78.92	12.165
79.14	20.349
79.36	6.319
79.58	2.124
79.8	0.604
80.02	7.328
80.24	4.032
80.46	3.116
80.68	12.952
80.9	18.629
81.12	7.636
81.34	8.619
81.56	0.49
81.78	5.765
82	18.018
82.22	8.578
82.44	3.057
82.66	1.455
82.88	2.676
83.1	5.924
83.32	7.135
83.54	5.397
83.76	11.133
83.98	7.061
84.2	17.995
84.42	7.89
84.64	0.623
84.86	2.752
85.08	5.655
85.3	7.013
85.52	10.344
85.74	3.604
85.96	2.688
86.18	5.8
86.4	3.883
86.62	7.356
86.84	7.418
87.06	7.366
87.28	6.133
87.5	5.942
87.72	1.655
87.94	7.17
88.16	4.97
88.38	14.873
88.6	14.672
88.82	7.279
89.04	11.911
89.26	4.915
89.48	8.067
89.7	17.116
89.92	9.209
