Measurement: Powder, Xray Data XY Processed
Mineral: Pyrrhotite
Rruff sample: R060440
Ideal chemistry: Fe^2+^_5_Fe^3+^_2_S^2-^_8_
Locality: Dal 'Negorsk, Primorskiy Kray, far eastern Russia
Source: Michael Scott
Description: Bronze-yellow metallic tabular hexagonal prisms
Diffraction sample description: Powder, cell parameters are from single crystal
Measured chemistry: Fe_7.1_S_8.0_
Cell parameters: a: 11.896(4) b: 6.865(1) c: 22.779(7) alpha: 90 beta: 90.34(1) gamma: 90 volume: 1860(1) crystal system: monoclinic
x	intensity
5	0
5.22	16.1268
5.44	23.1057
5.66	11.08
5.88	15.6259
6.1	17.6772
6.32	2.92983
6.54	16.0856
6.76	14.5341
6.98	11.1937
7.2	3.87534
7.42	1.66336
7.64	19.3587
7.86	12.5421
8.08	14.93
8.3	11.3887
8.52	6.74423
8.74	11.1716
8.96	25.416
9.18	15.6182
9.4	16.8431
9.62	8.31909
9.84	17.6894
10.06	13.4043
10.28	19.5991
10.5	14.8984
10.72	15.9885
10.94	7.01323
11.16	16.8976
11.38	12.6954
11.6	7.72725
11.82	15.0858
12.04	10.8098
12.26	3.27575
12.48	13.7252
12.7	17.4913
12.92	8.38997
13.14	4.67483
13.36	0.063053
13.58	5.58237
13.8	20.8961
14.02	14.9892
14.24	22.7649
14.46	3.53399
14.68	19.5048
14.9	14.9209
15.12	6.00532
15.34	15.5146
15.56	11.4467
15.78	8.22512
16	3.67833
16.22	0.060436
16.44	13.2731
16.66	18.3512
16.88	15.4698
17.1	9.05435
17.32	14.5977
17.54	25.0856
17.76	13.694
17.98	0.466328
18.2	14.6821
18.42	8.21668
18.64	5.48758
18.86	4.09671
19.08	17.9483
19.3	14.3508
19.52	18.3007
19.74	1.22881
19.96	14.191
20.18	1.31451
20.4	12.1591
20.62	7.91121
20.84	9.56815
21.06	10.3546
21.28	3.46901
21.5	18.3816
21.72	18.0216
21.94	24.1577
22.16	11.5762
22.38	1.93127
22.6	17.173
22.82	8.38556
23.04	4.7746
23.26	20.736
23.48	8.95379
23.7	3.74676
23.92	14.3063
24.14	18.9097
24.36	23.8868
24.58	4.88393
24.8	20.5864
25.02	8.20585
25.24	16.0778
25.46	18.3728
25.68	12.3409
25.9	4.29032
26.12	25.9804
26.34	28.4822
26.56	7.1947
26.78	10.7006
27	3.48197
27.22	0.266842
27.44	0.948151
27.66	12.4545
27.88	15.4884
28.1	1.05626
28.32	14.4926
28.54	10.2217
28.76	2.22627
28.98	18.4704
29.2	0.304298
29.42	15.1596
29.64	10.179
29.86	18.8041
30.08	38.0785
30.3	11.645
30.52	10.0672
30.74	18.5374
30.96	22.8516
31.18	19.8819
31.4	38.2391
31.62	22.0796
31.84	1.38378
32.06	14.078
32.28	3.09496
32.5	15.3015
32.72	9.06398
32.94	6.92191
33.16	16.2133
33.38	0.546574
33.6	12.02
33.82	24.4309
34.04	29.6047
34.26	17.1164
34.48	12.4943
34.7	20.5088
34.92	8.49889
35.14	0.517578
35.36	26.5409
35.58	4.74229
35.8	10.8758
36.02	18.8247
36.24	17.0068
36.46	10.5503
36.68	3.16494
36.9	9.41718
37.12	11.7174
37.34	14.2711
37.56	24.5761
37.78	8.81073
38	26.7712
38.22	11.0572
38.44	33.467
38.66	0.833439
38.88	2.02577
39.1	18.3454
39.32	14.3531
39.54	21.5375
39.76	2.09781
39.98	16.2848
40.2	21.0949
40.42	13.908
40.64	26.8553
40.86	20.5325
41.08	11.1052
41.3	32.0012
41.52	6.95846
41.74	27.3851
41.96	22.9542
42.18	6.47117
42.4	19.6042
42.62	10.1603
42.84	9.62577
43.06	33.7693
43.28	7.15735
43.5	13.4783
43.72	15.0188
43.94	32.4837
44.16	53.5431
44.38	27.9861
44.6	34.812
44.82	32.2465
45.04	11.8494
45.26	2.33691
45.48	0.01342
45.7	5.31215
45.92	12.7133
46.14	10.304
46.36	10.4695
46.58	11.3175
46.8	11.1356
47.02	12.5393
47.24	15.4189
47.46	12.7758
47.68	3.50284
47.9	10.5188
48.12	17.5465
48.34	17.87
48.56	3.38034
48.78	29.4411
49	7.50048
49.22	15.2803
49.44	18.107
49.66	7.97232
49.88	13.054
50.1	2.73875
50.32	2.78343
50.54	5.63447
50.76	8.37363
50.98	18.3961
51.2	11.4912
51.42	11.3787
51.64	8.48962
51.86	15.1172
52.08	26.5461
52.3	15.2125
52.52	16.905
52.74	24.8569
52.96	2.7103
53.18	13.4455
53.4	35.1175
53.62	21.3032
53.84	13.9627
54.06	4.70642
54.28	16.5826
54.5	16.6604
54.72	1.67172
54.94	11.3112
55.16	21.72
55.38	19.6079
55.6	3.57321
55.82	8.35554
56.04	17.8049
56.26	23.8561
56.48	3.98659
56.7	5.78215
56.92	8.17751
57.14	23.4841
57.36	8.62797
57.58	13.7812
57.8	16.2349
58.02	5.72687
58.24	13.1657
58.46	16.9753
58.68	22.9988
58.9	5.41625
59.12	35.3704
59.34	28.6214
59.56	11.6909
59.78	10.4092
60	8.56128
60.22	16.2556
60.44	10.8691
60.66	38.1702
60.88	27.5371
61.1	16.5219
61.32	15.7572
61.54	27.8983
61.76	11.2711
61.98	15.0522
62.2	19.9398
62.42	5.8358
62.64	22.1625
62.86	33.2522
63.08	19.2889
63.3	25.0652
63.52	3.242
63.74	27.3993
63.96	16.3085
64.18	2.47502
64.4	19.226
64.62	1.59468
64.84	8.6517
65.06	21.4478
65.28	14.1758
65.5	23.4834
65.72	19.6443
65.94	16.8189
66.16	7.92706
66.38	19.767
66.6	17.0064
66.82	4.24482
67.04	26.8693
67.26	1.25974
67.48	21.0285
67.7	28.0521
67.92	11.155
68.14	16.981
68.36	3.22227
68.58	13.4671
68.8	5.76203
69.02	11.6828
69.24	27.6618
69.46	14.5302
69.68	22.8292
69.9	11.8508
70.12	5.835
70.34	19.9462
70.56	17.7541
70.78	12.2948
71	4.05613
71.22	13.2704
71.44	23.7796
71.66	23.427
71.88	14.0465
72.1	9.65376
72.32	4.27998
72.54	12.3582
72.76	13.5597
72.98	8.89533
73.2	20.087
73.42	31.0355
73.64	4.69205
73.86	32.6003
74.08	16.9448
74.3	16.0819
74.52	5.80137
74.74	14.0357
74.96	33.1754
75.18	17.765
75.4	2.04341
75.62	7.27891
75.84	19.4009
76.06	31.3431
76.28	22.6452
76.5	4.10461
76.72	19.0317
76.94	16.1989
77.16	12.7636
77.38	9.63544
77.6	8.05531
77.82	1.73385
78.04	20.7168
78.26	1.24751
78.48	0.831383
78.7	7.62296
78.92	17.4923
79.14	20.855
79.36	26.5101
79.58	0.405487
79.8	16.6301
80.02	11.5349
80.24	18.3649
80.46	7.92631
80.68	0.791023
80.9	16.5661
81.12	15.0639
81.34	5.52393
81.56	2.88058
81.78	8.25597
82	7.13679
82.22	5.90069
82.44	9.77817
82.66	3.13028
82.88	2.41891
83.1	17.8986
83.32	12.0553
83.54	8.00696
83.76	13.9466
83.98	4.29143
84.2	10.7835
84.42	7.98212
84.64	31.3701
84.86	12.6809
85.08	6.76323
85.3	7.11033
85.52	5.20258
85.74	13.201
85.96	12.9306
86.18	0.703041
86.4	14.336
86.62	20.3002
86.84	14.4966
87.06	27.3745
87.28	0.244598
87.5	6.88129
87.72	15.3247
87.94	27.5079
88.16	20.3177
88.38	13.7754
88.6	12.2496
88.82	18.1025
89.04	14.1641
89.26	14.6426
89.48	10.0608
89.7	5.71368
89.92	24.8746
