Measurement: Powder, Xray Data XY Processed
Mineral: Quartz
Rruff sample: R060604
Ideal chemistry: SiO_2_
Locality: Piedras Parada, Veracruz, Mexico
Source: Michael Scott
Description: Purple hexagonal prisms, variety amethyst
Diffraction sample description: Powder
Measured chemistry: Si_1.00_O_2_
Cell parameters: a: 4.91449(6) b: 4.91449(6) c: 5.40619(7) alpha: 90. beta: 90. gamma: 120. volume: 113.078(2) crystal system: hexagonal
x	intensity
5	0
5.22	11.5961
5.44	17.5466
5.66	20.5168
5.88	14.9443
6.1	28.5732
6.32	20.612
6.54	6.864
6.76	10.6166
6.98	1.24071
7.2	10.0247
7.42	1.59996
7.64	8.21676
7.86	1.10676
8.08	6.30771
8.3	2.68103
8.52	5.94578
8.74	0.303924
8.96	6.92128
9.18	3.92504
9.4	3.35207
9.62	3.33271
9.84	3.45485
10.06	0.592753
10.28	2.56483
10.5	0.677567
10.72	0.720517
10.94	4.96593
11.16	13.9475
11.38	13.3686
11.6	5.57619
11.82	3.55726
12.04	7.67764
12.26	2.67464
12.48	6.78957
12.7	6.07374
12.92	3.09533
13.14	5.08901
13.36	1.18731
13.58	7.22004
13.8	3.00479
14.02	4.94357
14.24	4.86829
14.46	6.83491
14.68	0.924521
14.9	4.91448
15.12	0.34305
15.34	4.72739
15.56	2.73985
15.78	0.696328
16	1.70785
16.22	4.91514
16.44	3.92229
16.66	6.92583
16.88	6.03017
17.1	7.06566
17.32	2.18391
17.54	3.17222
17.76	7.97404
17.98	3.04532
18.2	6.17999
18.42	5.15127
18.64	9.94839
18.86	13.0525
19.08	0.994527
19.3	3.78378
19.52	5.47626
19.74	1.21016
19.96	1.0388
20.18	6.90679
20.4	0.708724
20.62	9.43914
20.84	54.4523
21.06	15.297
21.28	11.5428
21.5	11.7207
21.72	2.86097
21.94	1.04722
22.16	16.5132
22.38	3.99648
22.6	1.15641
22.82	1.31913
23.04	2.48264
23.26	3.56638
23.48	4.55574
23.7	1.57552
23.92	7.66957
24.14	16.8044
24.36	1.00159
24.58	5.30012
24.8	3.49588
25.02	1.86701
25.24	1.17536
25.46	2.39918
25.68	4.43602
25.9	7.52834
26.12	8.6221
26.34	13.937
26.56	69.148
26.78	1334.85
27	33.3326
27.22	14.6386
27.44	6.23702
27.66	7.99287
27.88	3.77704
28.1	9.45011
28.32	7.26238
28.54	5.00626
28.76	6.83411
28.98	7.39037
29.2	5.56696
29.42	4.53974
29.64	11.8219
29.86	5.75274
30.08	7.50202
30.3	7.60771
30.52	9.8435
30.74	8.70283
30.96	6.52471
31.18	6.51909
31.4	3.42564
31.62	5.42683
31.84	2.34441
32.06	1.43663
32.28	3.49477
32.5	3.69095
32.72	12.883
32.94	2.75505
33.16	0.975374
33.38	8.11984
33.6	2.35005
33.82	1.43392
34.04	2.44041
34.26	0.595761
34.48	2.37745
34.7	4.42968
34.92	2.21263
35.14	6.95874
35.36	9.78652
35.58	10.5637
35.8	1.33795
36.02	1.93434
36.24	1.01723
36.46	8.22401
36.68	97.2719
36.9	8.45058
37.12	9.45443
37.34	1.41602
37.56	4.71281
37.78	10.8627
38	10.1366
38.22	9.05532
38.44	5.93683
38.66	5.58742
38.88	9.23986
39.1	8.98757
39.32	5.57097
39.54	131.32
39.76	8.46519
39.98	3.43774
40.2	4.25703
40.42	30.1366
40.64	6.33176
40.86	8.5853
41.08	4.66351
41.3	2.6768
41.52	0.733466
41.74	8.81703
41.96	5.07569
42.18	9.78456
42.4	3.68814
42.62	76.5765
42.84	3.7525
43.06	0.165511
43.28	5.69424
43.5	6.7318
43.72	6.91234
43.94	11.1445
44.16	0.910698
44.38	1.06752
44.6	3.95328
44.82	6.9714
45.04	4.9635
45.26	5.89354
45.48	8.86425
45.7	4.94481
45.92	22.1142
46.14	3.48096
46.36	1.43368
46.58	2.82188
46.8	5.88355
47.02	7
47.24	3.60866
47.46	5.43942
47.68	5.37223
47.9	7.28507
48.12	2.10857
48.34	4.15527
48.56	3.66706
48.78	8.29025
49	3.04219
49.22	5.88477
49.44	3.73984
49.66	5.34221
49.88	11.5364
50.1	27.6218
50.32	156.781
50.54	11.9597
50.76	6.0974
50.98	9.46277
51.2	1.02702
51.42	6.30157
51.64	4.45795
51.86	8.63997
52.08	2.79656
52.3	9.54052
52.52	1.43977
52.74	4.5742
52.96	3.52508
53.18	3.2071
53.4	12.0434
53.62	7.71885
53.84	4.34933
54.06	5.55406
54.28	2.42412
54.5	3.32221
54.72	6.69527
54.94	86.8914
55.16	8.6831
55.38	32.689
55.6	4.79873
55.82	4.1376
56.04	0.829246
56.26	4.34095
56.48	6.4405
56.7	1.54991
56.92	2.27734
57.14	1.73061
57.36	6.42532
57.58	9.5733
57.8	5.76981
58.02	0.298138
58.24	5.24718
58.46	0.065722
58.68	0.302355
58.9	2.54354
59.12	3.32358
59.34	8.13949
59.56	4.34235
59.78	6.00832
60	238.023
60.22	37.8534
60.44	9.08972
60.66	4.27477
60.88	0.492309
61.1	3.9574
61.32	9.10265
61.54	0.686322
61.76	1.4913
61.98	1.29789
62.2	8.41303
62.42	5.2936
62.64	8.48178
62.86	11.2282
63.08	7.1501
63.3	2.84401
63.52	0.813648
63.74	0.020383
63.96	2.95565
64.18	10.0822
64.4	2.06948
64.62	4.23817
64.84	3.16674
65.06	10.0832
65.28	10.1414
65.5	7.04376
65.72	4.01323
65.94	8.89959
66.16	4.46717
66.38	5.3942
66.6	5.94232
66.82	3.69022
67.04	1.79224
67.26	3.97067
67.48	2.66362
67.7	14.4368
67.92	24.5109
68.14	46.4486
68.36	133.494
68.58	29.0856
68.8	1.29053
69.02	2.9387
69.24	4.23851
69.46	7.66479
69.68	5.96388
69.9	5.18398
70.12	10.419
70.34	4.56023
70.56	7.6354
70.78	4.48723
71	3.24669
71.22	6.19424
71.44	5.82615
71.66	3.74892
71.88	3.53166
72.1	1.52879
72.32	2.42055
72.54	6.34411
72.76	10.2206
72.98	3.53569
73.2	5.53462
73.42	2.42357
73.64	10.3428
73.86	4.42881
74.08	1.55884
74.3	3.48044
74.52	3.50747
74.74	2.50387
74.96	3.55306
75.18	3.43258
75.4	0.639537
75.62	9.75443
75.84	8.69826
76.06	8.61571
76.28	9.73571
76.5	5.63199
76.72	8.62645
76.94	1.62062
77.16	4.77032
77.38	0.176242
77.6	4.89322
77.82	6.55203
78.04	4.6524
78.26	7.76242
78.48	0.330135
78.7	3.39593
78.92	3.26929
79.14	4.13737
79.36	6.008
79.58	1.78843
79.8	6.84728
80.02	10.5991
80.24	5.37333
80.46	3.01093
80.68	1.92452
80.9	2.04287
81.12	8.16567
81.34	4.32746
81.56	33.6395
81.78	22.1493
82	4.3996
82.22	3.28431
82.44	0.250299
82.66	2.93747
82.88	3.07719
83.1	3.13934
83.32	4.18227
83.54	5.08007
83.76	7.20664
83.98	6.16806
84.2	14.5978
84.42	8.77491
84.64	3.78638
84.86	4.56118
85.08	7.57046
85.3	8.59407
85.52	5.64012
85.74	0.946938
85.96	1.82949
86.18	2.98503
86.4	8.8931
86.62	2.94082
86.84	5.84647
87.06	1.7852
87.28	0.779485
87.5	3.95465
87.72	12.0478
87.94	4.1608
88.16	12.0116
88.38	5.08126
88.6	7.00233
88.82	1.03327
89.04	2.01003
89.26	6.15599
89.48	0.059972
89.7	2.52725
89.92	1.70062
