Measurement: Powder, Xray Data XY Processed
Mineral: Realgar
Rruff sample: R060107
Ideal chemistry: AsS
Locality: Shimen, Hunan Province, China
Source: University of Arizona Mineral Museum
Description: Red prismatic crystals
Diffraction sample description: Powder
Measured chemistry: As_0.99_S_1.01_
Cell parameters: a: 9.323(1) b: 13.574(1) c: 6.587(1) alpha: 90 beta: 106.47(1) gamma: 90 volume: 799.4(2) crystal system: monoclinic
x	intensity
5	0
5.22	5.549
5.44	5.028
5.66	3.519
5.88	4.807
6.1	9.051
6.32	7.991
6.54	0.199
6.76	12.859
6.98	3.146
7.2	8.93
7.42	6.91
7.64	11.979
7.86	9.125
8.08	6.219
8.3	6.078
8.52	6.292
8.74	4.31
8.96	16.48
9.18	9.372
9.4	5.958
9.62	4.669
9.84	0.459
10.06	4.276
10.28	4.524
10.5	6.219
10.72	4.084
10.94	5.813
11.16	5.868
11.38	4.704
11.6	13.623
11.82	12.704
12.04	10.733
12.26	13.891
12.48	6.259
12.7	7.45
12.92	6.523
13.14	30.628
13.36	1.352
13.58	6.832
13.8	8.487
14.02	1.612
14.24	2.842
14.46	8.356
14.68	30.262
14.9	26.567
15.12	1.462
15.34	9.14
15.56	97.768
15.78	0.715
16	10.794
16.22	55.313
16.44	201.439
16.66	20.169
16.88	0.628
17.1	6.099
17.32	12.544
17.54	1.031
17.76	5.864
17.98	15.264
18.2	8.463
18.42	9.661
18.64	14.462
18.86	1.586
19.08	9.412
19.3	30.727
19.52	22.58
19.74	2.446
19.96	1.656
20.18	0.129
20.4	10.76
20.62	7.673
20.84	5.595
21.06	11.55
21.28	1.803
21.5	7.968
21.72	3.643
21.94	48.746
22.16	10.986
22.38	5.988
22.6	2.271
22.82	2.217
23.04	3.189
23.26	3.152
23.48	8.964
23.7	2.389
23.92	19.225
24.14	10.445
24.36	8.006
24.58	5.018
24.8	16.232
25.02	1.119
25.24	3.653
25.46	9.369
25.68	5.139
25.9	13.237
26.12	8.238
26.34	8.073
26.56	1.553
26.78	11.147
27	1.104
27.22	3.114
27.44	1.255
27.66	9.358
27.88	5.64
28.1	103.589
28.32	138.305
28.54	8.474
28.76	8.704
28.98	1.292
29.2	27.876
29.42	32.53
29.64	5.449
29.86	3.301
30.08	31.391
30.3	54.807
30.52	60.422
30.74	41.011
30.96	9.286
31.18	11.734
31.4	6.477
31.62	0.933
31.84	1.228
32.06	7.356
32.28	12.277
32.5	5.98
32.72	18.983
32.94	92.184
33.16	27.872
33.38	41.343
33.6	7.551
33.82	9.765
34.04	4.482
34.26	5.857
34.48	12.07
34.7	25.219
34.92	5.582
35.14	11.32
35.36	11.915
35.58	19.895
35.8	18.6
36.02	21.701
36.24	24.485
36.46	37.86
36.68	12.705
36.9	17.957
37.12	2.164
37.34	2.373
37.56	22.903
37.78	5.066
38	7.726
38.22	11.656
38.44	0.289
38.66	5.679
38.88	4.273
39.1	7.822
39.32	7.401
39.54	9.939
39.76	5.571
39.98	23.848
40.2	12.579
40.42	22.836
40.64	0.874
40.86	4.766
41.08	11.127
41.3	29.107
41.52	15.948
41.74	13.238
41.96	10.816
42.18	6.387
42.4	17.335
42.62	30.087
42.84	12.52
43.06	5.818
43.28	3.608
43.5	14.321
43.72	4.427
43.94	4.377
44.16	2.278
44.38	10.462
44.6	10.791
44.82	1.448
45.04	4.408
45.26	1.405
45.48	3.904
45.7	4.74
45.92	3.93
46.14	15.095
46.36	3.763
46.58	0.045
46.8	8.586
47.02	1.61
47.24	8.841
47.46	1.136
47.68	5.46
47.9	16.788
48.12	4.722
48.34	6.291
48.56	16.749
48.78	15.761
49	24.578
49.22	27.031
49.44	15.483
49.66	9.354
49.88	8.944
50.1	6.565
50.32	22.187
50.54	8.445
50.76	17.329
50.98	14.327
51.2	17.5
51.42	10.466
51.64	1.719
51.86	8.096
52.08	4.392
52.3	10.724
52.52	2.836
52.74	10.871
52.96	27.218
53.18	9.983
53.4	2.783
53.62	7.43
53.84	13.877
54.06	0.525
54.28	8.409
54.5	11.489
54.72	27.085
54.94	31.367
55.16	12.622
55.38	13.057
55.6	4.584
55.82	7.189
56.04	12.605
56.26	19.524
56.48	22.161
56.7	11.888
56.92	12.492
57.14	6.393
57.36	2.573
57.58	7.544
57.8	8.55
58.02	3.481
58.24	12.423
58.46	22.942
58.68	21.682
58.9	1.278
59.12	11.567
59.34	6.394
59.56	12.505
59.78	11.547
60	10.771
60.22	9.8
60.44	2.766
60.66	7.59
60.88	0.063
61.1	12.67
61.32	10.339
61.54	20.039
61.76	21.323
61.98	15.128
62.2	18.205
62.42	14.045
62.64	6.949
62.86	17.925
63.08	3.116
63.3	1.212
63.52	7.909
63.74	17.152
63.96	6.974
64.18	14.376
64.4	8.466
64.62	2.342
64.84	16.604
65.06	4.059
65.28	9.619
65.5	22.847
65.72	3.683
65.94	3.15
66.16	7.508
66.38	10.56
66.6	14.7
66.82	9.301
67.04	9.81
67.26	13.01
67.48	5.141
67.7	6.065
67.92	5.202
68.14	7.65
68.36	14.632
68.58	10.919
68.8	5.039
69.02	13.157
69.24	8.509
69.46	9.549
69.68	13.409
69.9	9.387
70.12	6.377
70.34	0.297
70.56	7.292
70.78	6.104
71	12.725
71.22	9.782
71.44	11.231
71.66	9.063
71.88	8.026
72.1	1.963
72.32	7.11
72.54	0.336
72.76	7.733
72.98	4.544
73.2	6.501
73.42	5.544
73.64	11.458
73.86	6.28
74.08	3.296
74.3	10.716
74.52	7.951
74.74	1.839
74.96	9.71
75.18	1.431
75.4	7.199
75.62	6.808
75.84	6.727
76.06	7.066
76.28	15.994
76.5	7.755
76.72	7.431
76.94	11.102
77.16	9.996
77.38	8.965
77.6	0.142
77.82	8.771
78.04	8.488
78.26	10.653
78.48	4.835
78.7	12.275
78.92	11.175
79.14	10.119
79.36	19.302
79.58	13.4
79.8	16.068
80.02	12.969
80.24	15.105
80.46	7.052
80.68	11.982
80.9	10.957
81.12	14.848
81.34	2.883
81.56	11.448
81.78	1.437
82	7.312
82.22	9.65
82.44	18.665
82.66	3.277
82.88	10.279
83.1	11.124
83.32	7.083
83.54	8.095
83.76	13.037
83.98	10.382
84.2	4.374
84.42	14.223
84.64	6.133
84.86	2.177
85.08	10.174
85.3	11.897
85.52	0.828
85.74	9.831
85.96	7.937
86.18	7.083
86.4	6.202
86.62	16.705
86.84	4.599
87.06	7.597
87.28	9.667
87.5	17.871
87.72	9.782
87.94	13.64
88.16	2.461
88.38	12.043
88.6	10.808
88.82	14.354
89.04	4.647
89.26	4.177
89.48	4.472
89.7	6.537
89.92	5.874
