Measurement: Powder, Xray Data XY Processed
Mineral: Realgar
Rruff sample: R060106
Ideal chemistry: AsS
Locality: Humboldt County, Nevada, USA
Source: University of Arizona Mineral Museum
Description: Red incrustation with some prismatic crystals
Diffraction sample description: Powder
Measured chemistry: As_1.06_S_0.94_
Cell parameters: a: 9.3293(6) b: 13.5658(7) c: 6.5876(6) alpha: 90 beta: 106.472(6) gamma: 90 volume: 799.50(7) crystal system: monoclinic
x	intensity
5	0
5.22	2.657
5.44	7.54
5.66	0.324
5.88	3.408
6.1	0.148
6.32	10.39
6.54	20.125
6.76	7.943
6.98	1.23
7.2	10.075
7.42	12.12
7.64	8.514
7.86	1.715
8.08	11.967
8.3	4.413
8.52	5.667
8.74	3.124
8.96	9.322
9.18	4.366
9.4	12.418
9.62	12.602
9.84	12.277
10.06	8.064
10.28	11.13
10.5	9.187
10.72	11.859
10.94	3.353
11.16	6.703
11.38	10.343
11.6	5.144
11.82	14.937
12.04	16.614
12.26	0.916
12.48	11.069
12.7	7.017
12.92	9.018
13.14	13.311
13.36	7.324
13.58	1.777
13.8	7.474
14.02	4.293
14.24	4.985
14.46	0.466
14.68	76.02
14.9	10.52
15.12	0.853
15.34	11.145
15.56	36.899
15.78	1.851
16	28.822
16.22	10.274
16.44	436.526
16.66	2.782
16.88	18.59
17.1	1.978
17.32	7.315
17.54	5.679
17.76	10.08
17.98	2.073
18.2	9.199
18.42	14.55
18.64	16.417
18.86	1.347
19.08	8.626
19.3	12.172
19.52	2.442
19.74	11.835
19.96	1.41
20.18	5.736
20.4	7.01
20.62	5.079
20.84	4.001
21.06	6.959
21.28	7.887
21.5	10.152
21.72	8.931
21.94	35.672
22.16	14.696
22.38	9.02
22.6	8.635
22.82	0.576
23.04	0.369
23.26	7.346
23.48	21.792
23.7	10.775
23.92	19.483
24.14	22.387
24.36	1.438
24.58	10.332
24.8	15.507
25.02	1.124
25.24	3.246
25.46	3.32
25.68	7.465
25.9	2.334
26.12	10.589
26.34	1.944
26.56	9.405
26.78	7.89
27	6.265
27.22	2.282
27.44	13.616
27.66	11.108
27.88	12.228
28.1	124.945
28.32	135.035
28.54	4.277
28.76	3.913
28.98	6.023
29.2	14.263
29.42	9.783
29.64	3.483
29.86	33.913
30.08	23.172
30.3	58.595
30.52	134.24
30.74	16.664
30.96	4.141
31.18	19.629
31.4	7.344
31.62	2.048
31.84	5.326
32.06	4.644
32.28	31.863
32.5	14.093
32.72	26.965
32.94	132.028
33.16	50.031
33.38	29.164
33.6	0.75
33.82	14.967
34.04	2.496
34.26	14.504
34.48	26.783
34.7	21.961
34.92	6.16
35.14	6.235
35.36	1.035
35.58	26.059
35.8	26.951
36.02	21.821
36.24	18.541
36.46	16.552
36.68	11.812
36.9	3.196
37.12	0.757
37.34	12.309
37.56	32.128
37.78	3.064
38	4.129
38.22	43.205
38.44	14.12
38.66	16.721
38.88	5.525
39.1	5.131
39.32	7.32
39.54	9.949
39.76	8.712
39.98	24.621
40.2	11.192
40.42	15.003
40.64	13.692
40.86	6.686
41.08	22.449
41.3	19.492
41.52	6.774
41.74	14.148
41.96	6.478
42.18	7.212
42.4	26.674
42.62	17.37
42.84	23.087
43.06	9.387
43.28	7.46
43.5	18.635
43.72	2.062
43.94	2.204
44.16	20.244
44.38	10.718
44.6	4.413
44.82	2.406
45.04	21.437
45.26	0.437
45.48	3.098
45.7	22.046
45.92	17.127
46.14	12.47
46.36	10.916
46.58	6.181
46.8	8.153
47.02	16.074
47.24	21.268
47.46	5.64
47.68	6.205
47.9	8.607
48.12	11.116
48.34	3.676
48.56	4.633
48.78	20.836
49	55.906
49.22	38.092
49.44	13.703
49.66	4.064
49.88	2.845
50.1	1.619
50.32	9.513
50.54	15.665
50.76	176.64
50.98	15.31
51.2	30.431
51.42	21.437
51.64	10.587
51.86	17.684
52.08	1.744
52.3	7.38
52.52	0.334
52.74	2.914
52.96	21.533
53.18	8.273
53.4	9.435
53.62	6.91
53.84	19.267
54.06	30.036
54.28	7.301
54.5	2.882
54.72	45.527
54.94	9.7
55.16	25.012
55.38	17.466
55.6	8.823
55.82	6.244
56.04	11.507
56.26	12.06
56.48	18.379
56.7	8.223
56.92	6.776
57.14	10.1
57.36	13.172
57.58	7.185
57.8	5.228
58.02	7.473
58.24	1.424
58.46	7.049
58.68	4.143
58.9	3.421
59.12	2.921
59.34	6.849
59.56	6.011
59.78	20.972
60	9.203
60.22	12.429
60.44	5.356
60.66	4.334
60.88	0.012
61.1	30.702
61.32	15.623
61.54	4.623
61.76	18.615
61.98	15.833
62.2	5.073
62.42	10.706
62.64	4.27
62.86	3.101
63.08	4.906
63.3	17.842
63.52	10.938
63.74	7.932
63.96	10.068
64.18	6.573
64.4	7.074
64.62	2.188
64.84	7.203
65.06	5.859
65.28	14.327
65.5	11.906
65.72	1.651
65.94	5.391
66.16	2.368
66.38	0.697
66.6	4.615
66.82	3.818
67.04	15.638
67.26	5.208
67.48	10.171
67.7	1.104
67.92	4.964
68.14	11.89
68.36	11.913
68.58	9.979
68.8	7.807
69.02	16.275
69.24	4.055
69.46	10.946
69.68	7.101
69.9	11.085
70.12	4.101
70.34	5.004
70.56	6.821
70.78	2.631
71	7.667
71.22	5.915
71.44	3.378
71.66	7.457
71.88	2.521
72.1	4.491
72.32	3.554
72.54	3.827
72.76	2.177
72.98	7.206
73.2	6.07
73.42	8.363
73.64	4.156
73.86	1.715
74.08	4.226
74.3	9.993
74.52	8.051
74.74	2.113
74.96	2.958
75.18	0.951
75.4	3.812
75.62	8.852
75.84	20.204
76.06	20.344
76.28	0.618
76.5	6.401
76.72	1.381
76.94	7.9
77.16	9.891
77.38	7.744
77.6	5.536
77.82	8.84
78.04	6.488
78.26	14.082
78.48	8.94
78.7	9.855
78.92	3.721
79.14	12.293
79.36	12.181
79.58	12.077
79.8	13.888
80.02	17.876
80.24	11.763
80.46	1.206
80.68	10.838
80.9	8.702
81.12	9.496
81.34	8.482
81.56	11.449
81.78	6.534
82	6.471
82.22	13.441
82.44	7.627
82.66	7.574
82.88	11.642
83.1	7.012
83.32	6.21
83.54	2.228
83.76	1.2
83.98	4.212
84.2	0.758
84.42	5.697
84.64	9.755
84.86	7.428
85.08	14.732
85.3	9.288
85.52	3.014
85.74	4.73
85.96	8.981
86.18	5.922
86.4	6.069
86.62	8.208
86.84	7.237
87.06	9.271
87.28	14.539
87.5	18.49
87.72	10.568
87.94	11.726
88.16	9.98
88.38	11.687
88.6	2.515
88.82	9.237
89.04	16.273
89.26	8.524
89.48	13.281
89.7	6.383
89.92	5.585
