Measurement: Powder, Xray Data XY Processed
Mineral: Reinhardbraunsite
Rruff sample: R061006
Ideal chemistry: Ca_5_(SiO_4_)_2_(OH)_2_
Locality: Bellerberg, Eifel, Germany
Source: Michael Scott
Description: Pink massive
Diffraction sample description: Powder
x	intensity
5	0
5.22	5.41793
5.44	8.7102
5.66	16.891
5.88	6.49315
6.1	13.4867
6.32	16.8658
6.54	16.9279
6.76	13.1624
6.98	15.2511
7.2	2.82485
7.42	4.99123
7.64	21.1625
7.86	9.4266
8.08	7.38894
8.3	3.81943
8.52	9.91251
8.74	3.99802
8.96	11.7006
9.18	16.7225
9.4	3.94367
9.62	7.3302
9.84	5.1914
10.06	15.0531
10.28	2.12914
10.5	12.862
10.72	11.5461
10.94	15.0944
11.16	32.1729
11.38	36.7858
11.6	16.9786
11.82	3.59427
12.04	6.1891
12.26	6.08663
12.48	11.6656
12.7	5.42771
12.92	8.96862
13.14	0.739829
13.36	0.509116
13.58	4.80579
13.8	5.10007
14.02	5.24671
14.24	10.2737
14.46	4.52406
14.68	7.18208
14.9	2.16149
15.12	9.85223
15.34	7.97658
15.56	4.85002
15.78	24.5631
16	1.49785
16.22	2.31188
16.44	2.09301
16.66	4.90864
16.88	10.7033
17.1	0.06483
17.32	8.877
17.54	11.0498
17.76	10.9583
17.98	9.07097
18.2	9.26182
18.42	0.372636
18.64	12.7479
18.86	5.76579
19.08	3.13555
19.3	3.36802
19.52	1.84474
19.74	6.17308
19.96	9.00255
20.18	5.12795
20.4	5.08326
20.62	59.074
20.84	9.6788
21.06	4.65944
21.28	5.63544
21.5	1.08672
21.72	1.55925
21.94	22.3009
22.16	13.0987
22.38	5.89832
22.6	15.3799
22.82	11.1493
23.04	8.34832
23.26	41.6154
23.48	6.47586
23.7	16.3925
23.92	12.8837
24.14	2.9966
24.36	5.22601
24.58	6.23451
24.8	2.27955
25.02	10.5437
25.24	4.22603
25.46	2.77146
25.68	5.46024
25.9	16.1935
26.12	5.99313
26.34	21.7111
26.56	11.6327
26.78	7.22851
27	8.96619
27.22	3.24122
27.44	0.058311
27.66	1.03878
27.88	7.46645
28.1	0.877603
28.32	13.4085
28.54	5.82434
28.76	4.86064
28.98	8.05813
29.2	14.8774
29.42	18.5767
29.64	208.993
29.86	13.9997
30.08	9.04656
30.3	7.4093
30.52	9.93347
30.74	6.44297
30.96	29.7126
31.18	26.1066
31.4	0.422857
31.62	8.92578
31.84	2.20144
32.06	33.6126
32.28	13.8198
32.5	81.4725
32.72	43.1269
32.94	27.0138
33.16	3.81261
33.38	23.8136
33.6	1.21938
33.82	0.871765
34.04	6.65698
34.26	9.22341
34.48	13.0665
34.7	28.4625
34.92	12.3754
35.14	6.68804
35.36	20.4288
35.58	7.49403
35.8	25.5756
36.02	2.6947
36.24	27.1958
36.46	0.576722
36.68	59.3448
36.9	5.41994
37.12	5.41324
37.34	11.7657
37.56	0.97806
37.78	6.15325
38	4.3468
38.22	14.3089
38.44	6.08061
38.66	16.9942
38.88	19.857
39.1	6.17189
39.32	4.02816
39.54	9.61107
39.76	0.280177
39.98	8.81622
40.2	8.87996
40.42	1.07313
40.64	2.26186
40.86	2.71274
41.08	18.089
41.3	10.304
41.52	0.467284
41.74	3.98201
41.96	19.703
42.18	0.963482
42.4	8.97611
42.62	7.18159
42.84	8.37317
43.06	6.3048
43.28	5.98033
43.5	5.50464
43.72	5.34079
43.94	17.4001
44.16	5.10766
44.38	7.95188
44.6	6.58607
44.82	9.51766
45.04	5.55883
45.26	0.43406
45.48	4.58268
45.7	14.3207
45.92	12.4092
46.14	6.78186
46.36	4.68238
46.58	2.64074
46.8	4.24945
47.02	14.8739
47.24	6.79296
47.46	3.96127
47.68	28.2385
47.9	7.36372
48.12	9.88387
48.34	31.9772
48.56	4.58022
48.78	5.64592
49	12.4643
49.22	5.18423
49.44	7.02181
49.66	8.89116
49.88	5.76992
50.1	11.1483
50.32	19.2659
50.54	47.1096
50.76	13.5429
50.98	6.53556
51.2	8.79473
51.42	0.236407
51.64	0.455937
51.86	2.34516
52.08	25.5274
52.3	3.01079
52.52	9.21297
52.74	3.93856
52.96	4.06985
53.18	3.44494
53.4	4.24095
53.62	7.03543
53.84	5.54781
54.06	7.29091
54.28	15.3001
54.5	12.502
54.72	2.16856
54.94	9.03694
55.16	6.94456
55.38	1.90745
55.6	15.0859
55.82	13.3196
56.04	7.48218
56.26	20.9622
56.48	9.42801
56.7	7.14922
56.92	0.710794
57.14	8.14405
57.36	9.5784
57.58	11.9079
57.8	3.55156
58.02	0.941707
58.24	12.0515
58.46	13.2341
58.68	3.14758
58.9	4.05265
59.12	0.646216
59.34	4.61324
59.56	10.6074
59.78	8.59534
60	12.1453
60.22	1.94514
60.44	1.11786
60.66	5.16504
60.88	2.15817
61.1	10.2505
61.32	4.31134
61.54	2.7668
61.76	20.2732
61.98	6.37704
62.2	0.674747
62.42	7.87481
62.64	4.75198
62.86	1.2617
63.08	13.0194
63.3	2.28
63.52	9.34329
63.74	18.7663
63.96	10.095
64.18	8.34869
64.4	6.4464
64.62	4.55009
64.84	5.56398
65.06	6.79746
65.28	1.74664
65.5	2.55573
65.72	8.4097
65.94	3.45573
66.16	8.16958
66.38	13.0419
66.6	3.20475
66.82	12.5514
67.04	9.70153
67.26	5.8194
67.48	0.720873
67.7	8.7734
67.92	7.07192
68.14	9.3101
68.36	8.47326
68.58	4.75613
68.8	15.5723
69.02	1.26486
69.24	0.770825
69.46	6.80531
69.68	12.8702
69.9	16.0727
70.12	0.377553
70.34	2.3757
70.56	9.25579
70.78	2.17481
71	7.00556
71.22	5.23283
71.44	8.07206
71.66	4.85798
71.88	6.78993
72.1	6.8333
72.32	3.77998
72.54	7.61452
72.76	0.54152
72.98	10.4982
73.2	8.5591
73.42	9.17202
73.64	4.05305
73.86	1.10696
74.08	5.83507
74.3	4.86724
74.52	11.6955
74.74	8.44079
74.96	6.236
75.18	9.09578
75.4	0.313775
75.62	2.29342
75.84	8.45498
76.06	7.9775
76.28	3.33587
76.5	2.42607
76.72	5.57884
76.94	12.7641
77.16	1.08404
77.38	7.01975
77.6	1.6371
77.82	6.22307
78.04	11.2
78.26	2.12136
78.48	3.03677
78.7	9.19451
78.92	4.09302
79.14	0.8852
79.36	5.84174
79.58	5.75564
79.8	4.66291
80.02	10.4287
80.24	4.28375
80.46	3.25121
80.68	12.2069
80.9	11.1594
81.12	3.83961
81.34	5.69384
81.56	4.76123
81.78	2.26986
82	0.292759
82.22	2.36906
82.44	1.81603
82.66	3.97127
82.88	15.9739
83.1	2.00226
83.32	7.83165
83.54	11.709
83.76	8.81823
83.98	6.68434
84.2	9.65566
84.42	6.64849
84.64	1.51136
84.86	5.53344
85.08	17.4726
85.3	14.5606
85.52	6.47791
85.74	16.8492
85.96	1.89041
86.18	1.96476
86.4	15.0504
86.62	8.40698
86.84	2.45415
87.06	13.5594
87.28	0.372067
87.5	9.56782
87.72	1.42676
87.94	10.3389
88.16	11.9523
88.38	6.92543
88.6	5.85777
88.82	2.92059
89.04	5.93309
89.26	6.76095
89.48	5.96634
89.7	8.68339
89.92	9.86766
