Measurement: Powder, Xray Data XY Processed
Mineral: Renierite
Rruff sample: R050428
Ideal chemistry: (Cu^1+^,Cu^2+^Zn^2+^)_11_(Fe^2+^,Fe^3+^)_4_(Ge^4+^,As^5+^)_2_S^2-^_16_
Locality: Tsumeb mine, Tsumeb, Otavi District, Oshikoto, Namibia
Source: University of Arizona Mineral Museum
Description: Reddish bronze metallic massive, associated with siderite.
Diffraction sample description: Powder
Measured chemistry: (Cu_10.73_Zn_0.28_)_Σ=11_Fe_4.00_(Ge_1.35_As_0.65_)_Σ=2_S_16.00_
Cell parameters: a: 10.6145(5) b: 10.6145(5) c: 10.548(1) alpha: 90 beta: 90 gamma: 90 volume: 1188.4(1) crystal system: tetragonal
x	intensity
5	0
5.22	3.42537
5.44	25.2789
5.66	10.4576
5.88	9.52346
6.1	30.2294
6.32	30.6958
6.54	13.5762
6.76	19.5442
6.98	4.22971
7.2	4.60746
7.42	8.68616
7.64	10.9008
7.86	9.31827
8.08	13.3787
8.3	7.6781
8.52	14.3248
8.74	7.51579
8.96	12.8729
9.18	14.3369
9.4	3.93384
9.62	0.371862
9.84	4.92459
10.06	11.075
10.28	12.3097
10.5	19.064
10.72	11.0916
10.94	10.8097
11.16	10.2024
11.38	6.27304
11.6	6.53475
11.82	16.9269
12.04	13.0829
12.26	15.1607
12.48	6.47971
12.7	9.51643
12.92	10.9333
13.14	12.378
13.36	3.31391
13.58	17.5455
13.8	10.2954
14.02	8.95582
14.24	4.47153
14.46	5.87638
14.68	8.72533
14.9	1.88938
15.12	20.9055
15.34	0.976131
15.56	3.97784
15.78	4.78676
16	2.52196
16.22	3.74906
16.44	29.4478
16.66	6.56032
16.88	36.5385
17.1	15.11
17.32	10.4774
17.54	8.05079
17.76	3.2486
17.98	23.1944
18.2	15.9874
18.42	11.5892
18.64	2.78076
18.86	0.133274
19.08	6.63574
19.3	2.42032
19.52	9.23234
19.74	2.76035
19.96	3.76768
20.18	3.87006
20.4	15.9651
20.62	24.9295
20.84	17.2955
21.06	14.8102
21.28	1.61677
21.5	12.143
21.72	13.0634
21.94	3.99604
22.16	0.142334
22.38	6.82315
22.6	5.31786
22.82	3.75689
23.04	14.476
23.26	7.48768
23.48	10.0211
23.7	5.64645
23.92	21.3256
24.14	14.0854
24.36	7.7097
24.58	2.98479
24.8	24.5308
25.02	11.2135
25.24	9.96227
25.46	2.15821
25.68	1.16621
25.9	0.607368
26.12	15.8404
26.34	20.6228
26.56	27.0064
26.78	15.3458
27	10.374
27.22	13.086
27.44	18.5548
27.66	6.79543
27.88	8.75002
28.1	5.50383
28.32	21.3955
28.54	12.1722
28.76	15.5433
28.98	23.4086
29.2	663.667
29.42	85.504
29.64	22.2508
29.86	13.7005
30.08	22.4028
30.3	19.1269
30.52	11.9015
30.74	6.31678
30.96	1.55428
31.18	7.93018
31.4	15.3036
31.62	25.6492
31.84	16.1053
32.06	14.3836
32.28	10.4686
32.5	13.6465
32.72	3.85628
32.94	4.67074
33.16	13.7359
33.38	12.3094
33.6	5.61881
33.82	79.5958
34.04	48.5582
34.26	6.96992
34.48	2.02095
34.7	1.1615
34.92	19.1452
35.14	14.8107
35.36	11.3335
35.58	21.0133
35.8	3.32083
36.02	14.6345
36.24	17.577
36.46	12.4512
36.68	15.5991
36.9	6.39162
37.12	27.1792
37.34	18.1347
37.56	2.60988
37.78	19.7216
38	6.15884
38.22	2.41845
38.44	1.53789
38.66	14.7712
38.88	8.83823
39.1	13.3903
39.32	3.42787
39.54	10.1037
39.76	13.8055
39.98	25.6093
40.2	5.67029
40.42	10.6334
40.64	0.319874
40.86	20.9349
41.08	0.399746
41.3	21.5222
41.52	12.4572
41.74	17.4417
41.96	14.969
42.18	22.9426
42.4	23.7586
42.62	8.28996
42.84	24.6844
43.06	19.3262
43.28	32.8481
43.5	38.5673
43.72	17.5112
43.94	15.4831
44.16	8.63874
44.38	7.72242
44.6	22.8483
44.82	6.96737
45.04	3.4561
45.26	2.55276
45.48	28.2857
45.7	5.18204
45.92	25.181
46.14	21.948
46.36	15.118
46.58	8.38574
46.8	5.48617
47.02	13.0803
47.24	28.6712
47.46	9.91547
47.68	6.42438
47.9	7.56785
48.12	21.0246
48.34	33.5363
48.56	127.496
48.78	181.711
49	27.1986
49.22	19.4233
49.44	21.2356
49.66	14.2368
49.88	20.1699
50.1	12.0104
50.32	18.5981
50.54	12.0708
50.76	19.9738
50.98	23.1791
51.2	29.8265
51.42	9.59568
51.64	8.2658
51.86	13.471
52.08	27.311
52.3	22.5055
52.52	29.2558
52.74	6.65017
52.96	8.48074
53.18	8.26113
53.4	14.5699
53.62	6.66642
53.84	15.9388
54.06	17.1196
54.28	5.94248
54.5	26.506
54.72	14.176
54.94	5.34644
55.16	13.1567
55.38	19.0409
55.6	22.8231
55.82	8.72893
56.04	12.7433
56.26	19.899
56.48	9.16417
56.7	8.03799
56.92	11.6456
57.14	63.9969
57.36	32.8218
57.58	113.051
57.8	89.2393
58.02	41.9539
58.24	38.235
58.46	0.718475
58.68	12.7555
58.9	19.1903
59.12	13.7915
59.34	10.896
59.56	11.7794
59.78	4.23453
60	3.21231
60.22	22.0904
60.44	5.02319
60.66	17.9467
60.88	12.3604
61.1	10.7211
61.32	22.0154
61.54	8.13564
61.76	25.0475
61.98	15.3384
62.2	17.9664
62.42	13.5469
62.64	25.7376
62.86	30.2305
63.08	11.0135
63.3	11.7961
63.52	21.5239
63.74	25.2548
63.96	8.28596
64.18	21.1093
64.4	19.035
64.62	16.5269
64.84	16.4514
65.06	24.4943
65.28	22.084
65.5	24.3435
65.72	11.5365
65.94	21.744
66.16	8.92821
66.38	4.84855
66.6	18.8392
66.82	22.1729
67.04	35.8643
67.26	3.52585
67.48	10.4725
67.7	17.6108
67.92	21.2447
68.14	2.84338
68.36	2.57652
68.58	14.0166
68.8	8.49994
69.02	2.77508
69.24	22.9984
69.46	6.79266
69.68	22.8806
69.9	20.1817
70.12	2.13554
70.34	0.524414
70.56	18.2635
70.78	4.04046
71	48.7519
71.22	22.4349
71.44	2.74963
71.66	13.0728
71.88	9.4503
72.1	12.5275
72.32	18.848
72.54	20.4976
72.76	10.6761
72.98	4.21725
73.2	4.18964
73.42	5.27252
73.64	12.9288
73.86	3.3231
74.08	24.4289
74.3	31.4618
74.52	14.1067
74.74	21.4996
74.96	13.1934
75.18	4.94383
75.4	12.2629
75.62	13.477
75.84	5.37793
76.06	2.10224
76.28	15.9709
76.5	1.01891
76.72	27.4499
76.94	6.83003
77.16	2.55994
77.38	13.7085
77.6	4.28214
77.82	25.4438
78.04	8.65179
78.26	26.3855
78.48	23.3382
78.7	46.4681
78.92	29.9242
79.14	25.9967
79.36	11.937
79.58	15.0533
79.8	14.8296
80.02	5.3674
80.24	8.81348
80.46	18.0215
80.68	21.1477
80.9	17.0743
81.12	20.355
81.34	10.7047
81.56	12.7883
81.78	27.0723
82	13.8982
82.22	11.5745
82.44	10.3243
82.66	3.32596
82.88	10.9362
83.1	22.0129
83.32	18.4911
83.54	14.056
83.76	5.30645
83.98	16.775
84.2	3.15227
84.42	20.2666
84.64	13.2225
84.86	14.1709
85.08	15.14
85.3	25.4606
85.52	0.161049
85.74	17.6062
85.96	6.76869
86.18	4.81303
86.4	11.5156
86.62	24.7288
86.84	24.4824
87.06	10.8375
87.28	1.69075
87.5	23.5291
87.72	0.529289
87.94	21.7273
88.16	1.00538
88.38	13.2114
88.6	20.1281
88.82	11.6327
89.04	15.0155
89.26	29.0119
89.48	22.753
89.7	2.36914
89.92	20.149
