Measurement: Powder, Xray Data XY Processed
Mineral: Rhodonite
Rruff sample: R040041
Ideal chemistry: CaMn^2+^_3_Mn^2+^Si_5_O_15_
Locality: Franklin, Sussex County, New Jersey, USA
Source: University of Arizona Mineral Museum
Description: Pink prismatic crystals
Diffraction sample description: Powder
Measured chemistry: (Mn_0.63_Ca_0.21_Zn_0.12_Mg_0.02_Fe_0.02_)_Î£=1_Si_1.00_O_3_
Cell parameters: a: 9.896(2) b: 10.528(1) c: 12.213(7) alpha: 108.74(3) beta: 103.95(3) gamma: 82.03(1) volume: 1166.9(5) crystal system: triclinic
x	intensity
5	0
5.22	13.151
5.44	18.008
5.66	11.677
5.88	12.157
6.1	2.497
6.32	5.317
6.54	27.618
6.76	17.216
6.98	27.265
7.2	9.485
7.42	0.099
7.64	7.171
7.86	9.71
8.08	18.409
8.3	12.243
8.52	15.818
8.74	11.553
8.96	12.591
9.18	9.515
9.4	12.315
9.62	22.775
9.84	13.948
10.06	6.66
10.28	14.697
10.5	17.481
10.72	14.263
10.94	19.772
11.16	0.067
11.38	4.876
11.6	8.375
11.82	18.354
12.04	5.703
12.26	19.258
12.48	93.063
12.7	0.912
12.92	6.564
13.14	14.987
13.36	130.592
13.58	14.212
13.8	6.09
14.02	14.158
14.24	23.595
14.46	14.318
14.68	20.993
14.9	13.148
15.12	9.104
15.34	5.735
15.56	7.871
15.78	3.012
16	12.547
16.22	15.489
16.44	14.82
16.66	22.287
16.88	28.258
17.1	20.509
17.32	16.184
17.54	13.075
17.76	4.138
17.98	0.591
18.2	14.188
18.42	15.991
18.64	24.053
18.86	9.191
19.08	11.207
19.3	5.764
19.52	0.358
19.74	9.742
19.96	31.94
20.18	0.649
20.4	17.281
20.62	4.759
20.84	14.429
21.06	12.318
21.28	22.434
21.5	25.69
21.72	18.604
21.94	9.813
22.16	16.986
22.38	0.412
22.6	7.032
22.82	21.306
23.04	3.867
23.26	97.864
23.48	6.358
23.7	5.544
23.92	4.156
24.14	28.019
24.36	11.674
24.58	11.202
24.8	5.715
25.02	194.498
25.24	6.833
25.46	17.92
25.68	14.604
25.9	1.746
26.12	92.235
26.34	4.293
26.56	7.596
26.78	99.907
27	20.975
27.22	2.621
27.44	30.99
27.66	20.11
27.88	14.437
28.1	18.068
28.32	50.636
28.54	104.877
28.76	35.251
28.98	87.553
29.2	3.952
29.42	11.748
29.64	11.732
29.86	40.958
30.08	352.911
30.3	11.483
30.52	18.303
30.74	63.897
30.96	11.262
31.18	5.921
31.4	15.497
31.62	17.367
31.84	41.167
32.06	11.677
32.28	21.434
32.5	25.27
32.72	4.119
32.94	18.608
33.16	15.299
33.38	1.138
33.6	16.398
33.82	13.976
34.04	18.476
34.26	4.5
34.48	36.934
34.7	24.566
34.92	14.576
35.14	19.614
35.36	4.423
35.58	100.214
35.8	7.726
36.02	10.856
36.24	7.148
36.46	9.144
36.68	13.258
36.9	17.518
37.12	22.285
37.34	18.435
37.56	25.185
37.78	70.975
38	20.492
38.22	5.68
38.44	20.423
38.66	18.382
38.88	6.619
39.1	8.858
39.32	3.879
39.54	23.668
39.76	13.244
39.98	0.949
40.2	21.151
40.42	15.549
40.64	31.918
40.86	52.143
41.08	3.061
41.3	0.867
41.52	96.02
41.74	12.816
41.96	9.411
42.18	17.888
42.4	20.762
42.62	25.715
42.84	15.126
43.06	9.686
43.28	19.013
43.5	15.056
43.72	0.462
43.94	31.406
44.16	25.554
44.38	11.357
44.6	13.616
44.82	16.528
45.04	1.425
45.26	10.877
45.48	13.671
45.7	11.065
45.92	22.85
46.14	20.687
46.36	18.227
46.58	11.931
46.8	0.568
47.02	12.544
47.24	12.478
47.46	17.039
47.68	17.105
47.9	19.94
48.12	8.369
48.34	13.049
48.56	49.83
48.78	19.955
49	23.136
49.22	10.351
49.44	6.08
49.66	21.537
49.88	27.519
50.1	29.253
50.32	16.631
50.54	9.444
50.76	16.183
50.98	20.402
51.2	22.841
51.42	16.283
51.64	1.578
51.86	8.126
52.08	4.376
52.3	15.961
52.52	18.976
52.74	11.739
52.96	19.085
53.18	15.958
53.4	12.743
53.62	23.614
53.84	12
54.06	27.353
54.28	22.578
54.5	25.976
54.72	17.009
54.94	17.372
55.16	27.416
55.38	9.943
55.6	8.36
55.82	15.887
56.04	25.056
56.26	31.293
56.48	4.551
56.7	5.195
56.92	4.405
57.14	29.555
57.36	8.489
57.58	15.249
57.8	26.751
58.02	3.633
58.24	1.253
58.46	5.988
58.68	10.041
58.9	19.044
59.12	6.268
59.34	1.157
59.56	27.307
59.78	32.546
60	5.15
60.22	10.253
60.44	5.892
60.66	7.879
60.88	10.711
61.1	13.595
61.32	32.331
61.54	37.163
61.76	14.154
61.98	23.521
62.2	12.212
62.42	16.899
62.64	13.293
62.86	22.02
63.08	6.811
63.3	26.875
63.52	1.17
63.74	23.502
63.96	16.099
64.18	2.628
64.4	0.217
64.62	17.629
64.84	34.677
65.06	18.73
65.28	7.087
65.5	22.242
65.72	13.967
65.94	1.846
66.16	19.14
66.38	31.387
66.6	17.639
66.82	31.996
67.04	5.393
67.26	16.462
67.48	9.089
67.7	44.749
67.92	38.898
68.14	4.477
68.36	14.92
68.58	8.151
68.8	7.768
69.02	12.907
69.24	12.927
69.46	13.011
69.68	19.409
69.9	23.667
70.12	25.869
70.34	11.063
70.56	20.594
70.78	7.256
71	9.711
71.22	20.088
71.44	27.931
71.66	8.625
71.88	10.137
72.1	1.408
72.32	13.728
72.54	2.883
72.76	21.445
72.98	11.78
73.2	33.761
73.42	35.054
73.64	17.485
73.86	1.37
74.08	13.363
74.3	9.045
74.52	11.547
74.74	3.805
74.96	0.44
75.18	11.252
75.4	11.322
75.62	0.85
75.84	17.998
76.06	17.221
76.28	19.6
76.5	9.88
76.72	15.019
76.94	10.14
77.16	3.955
77.38	0.393
77.6	21.338
77.82	4.082
78.04	11.602
78.26	6.68
78.48	10.338
78.7	6.248
78.92	17.293
79.14	0.726
79.36	0.361
79.58	10.583
79.8	1.966
80.02	8.693
80.24	25.771
80.46	13.997
80.68	30.538
80.9	1.53
81.12	14.563
81.34	8.505
81.56	4.339
81.78	10.724
82	13.835
82.22	9.308
82.44	17.649
82.66	11.717
82.88	1.684
83.1	9.602
83.32	21.613
83.54	21.302
83.76	23.155
83.98	9.97
84.2	25.158
84.42	35.509
84.64	27
84.86	24.549
85.08	18.87
85.3	20.112
85.52	1.309
85.74	1.948
85.96	5.351
86.18	0.881
86.4	4.669
86.62	2.039
86.84	13.354
87.06	19.446
87.28	5.959
87.5	14.225
87.72	19.205
87.94	20.43
88.16	31.544
88.38	21.899
88.6	30.957
88.82	26.392
89.04	11.219
89.26	22.212
89.48	11.389
89.7	26.565
89.92	19.927
