Measurement: Powder, Xray Data XY Processed
Mineral: Rhodonite
Rruff sample: R060363
Ideal chemistry: CaMn^2+^_3_Mn^2+^Si_5_O_15_
Locality: 2600' level, Broken Hill mine, New South Wales, Australia
Source: Herb Obodda
Description: Reddish brown cleavage fragment
Diffraction sample description: Powder
Measured chemistry: (Mn_0.75_Fe_0.18_Ca_0.09_)Si_0.99_O_3_
Cell parameters: a: 9.7672(9) b: 10.5146(5) c: 12.2421(7) alpha: 109.111(9) beta: 102.897(7) gamma: 82.245(4) volume: 1155.37(9) crystal system: triclinic
x	intensity
5	0
5.22	2.027
5.44	13.393
5.66	15.612
5.88	23.871
6.1	15.757
6.32	19.664
6.54	22.818
6.76	1.459
6.98	12.782
7.2	26.371
7.42	10.735
7.64	32.647
7.86	14.761
8.08	3.239
8.3	13.588
8.52	16.807
8.74	12.616
8.96	22.134
9.18	11.618
9.4	4.918
9.62	24.818
9.84	9.867
10.06	9.165
10.28	4.533
10.5	19.642
10.72	5.986
10.94	19.387
11.16	13.638
11.38	5.633
11.6	10.529
11.82	20.389
12.04	10.45
12.26	16.272
12.48	28.471
12.7	10.284
12.92	8.448
13.14	11.281
13.36	35.894
13.58	19.622
13.8	2.338
14.02	7.379
14.24	9.359
14.46	2.138
14.68	6.932
14.9	10.464
15.12	1.972
15.34	20.64
15.56	17.318
15.78	4.398
16	18.471
16.22	7.306
16.44	15.104
16.66	12.238
16.88	3.526
17.1	12.843
17.32	20.563
17.54	11.739
17.76	25.963
17.98	12.425
18.2	24.401
18.42	10.406
18.64	24.94
18.86	0.836
19.08	20.002
19.3	18.481
19.52	9.262
19.74	5
19.96	17.897
20.18	9.995
20.4	3.322
20.62	16.016
20.84	2.798
21.06	15.086
21.28	6.592
21.5	13.45
21.72	14.677
21.94	1.912
22.16	0.25
22.38	18.765
22.6	0.413
22.82	31.33
23.04	19.168
23.26	17.538
23.48	2.573
23.7	4.52
23.92	13.432
24.14	13.254
24.36	19.76
24.58	12.977
24.8	17.257
25.02	18.674
25.24	1.77
25.46	10.885
25.68	10.952
25.9	12.933
26.12	30.685
26.34	20.384
26.56	23.209
26.78	36.759
27	15.042
27.22	14.751
27.44	19.939
27.66	13.459
27.88	21.969
28.1	8.651
28.32	25.976
28.54	21.561
28.76	12.7
28.98	41.362
29.2	19.117
29.42	21.861
29.64	0.907
29.86	2.772
30.08	46.295
30.3	40.992
30.52	64.428
30.74	19.578
30.96	4.117
31.18	16.754
31.4	1.073
31.62	2.099
31.84	6.221
32.06	22.33
32.28	29.289
32.5	32.762
32.72	19.664
32.94	5.515
33.16	15.651
33.38	7.59
33.6	11.831
33.82	34.737
34.04	1.876
34.26	24.995
34.48	8.781
34.7	10.994
34.92	9.815
35.14	6.436
35.36	13.061
35.58	12.417
35.8	55.552
36.02	7.287
36.24	20.477
36.46	12.183
36.68	20.431
36.9	9.512
37.12	17.133
37.34	0.164
37.56	11.498
37.78	9.953
38	4.239
38.22	0.344
38.44	19.987
38.66	12.36
38.88	2.855
39.1	10.586
39.32	13.422
39.54	9.648
39.76	28.772
39.98	26.7
40.2	10.789
40.42	39.78
40.64	33.435
40.86	13.616
41.08	23.905
41.3	9.466
41.52	35.462
41.74	26.45
41.96	3.38
42.18	12.134
42.4	22.886
42.62	1.728
42.84	7.514
43.06	25.233
43.28	31.393
43.5	1.754
43.72	9.681
43.94	13.789
44.16	26.168
44.38	27.793
44.6	17.928
44.82	1.989
45.04	22.43
45.26	17.149
45.48	17.808
45.7	4.977
45.92	18.047
46.14	5.221
46.36	1.743
46.58	11.208
46.8	16.686
47.02	20.814
47.24	1.922
47.46	26.677
47.68	28.469
47.9	17.323
48.12	10.211
48.34	20.244
48.56	21.133
48.78	16.211
49	23.791
49.22	19.531
49.44	15.436
49.66	8.359
49.88	12.377
50.1	20.194
50.32	7.37
50.54	1.288
50.76	19.757
50.98	26.8
51.2	23.202
51.42	15.041
51.64	14.395
51.86	25.617
52.08	13.45
52.3	15.239
52.52	2.244
52.74	16.435
52.96	23.962
53.18	21.795
53.4	2.612
53.62	10.111
53.84	0.815
54.06	20.223
54.28	15.362
54.5	5.478
54.72	26.688
54.94	31.902
55.16	1.401
55.38	17.027
55.6	4.828
55.82	22.746
56.04	8.887
56.26	16.161
56.48	24.078
56.7	23.259
56.92	13.134
57.14	24.006
57.36	17.09
57.58	7.489
57.8	1.075
58.02	4.082
58.24	25.072
58.46	13.017
58.68	1.671
58.9	11.664
59.12	10.155
59.34	21.044
59.56	22.746
59.78	1.789
60	6.459
60.22	9.377
60.44	10.365
60.66	1.426
60.88	22.269
61.1	11.614
61.32	15.853
61.54	1.751
61.76	9.708
61.98	2.454
62.2	9.332
62.42	17.837
62.64	3.81
62.86	20.954
63.08	16.105
63.3	15.572
63.52	15.683
63.74	19.335
63.96	5.102
64.18	11.068
64.4	14.682
64.62	4.306
64.84	1.367
65.06	22.66
65.28	20.647
65.5	33.11
65.72	9.796
65.94	17.317
66.16	14.793
66.38	12.352
66.6	23.501
66.82	16.702
67.04	17.978
67.26	22.888
67.48	17.156
67.7	24.248
67.92	12.729
68.14	11.783
68.36	2.991
68.58	6.129
68.8	24.565
69.02	5.674
69.24	28.791
69.46	6.18
69.68	1.461
69.9	12.097
70.12	10.845
70.34	33.407
70.56	20.345
70.78	11.361
71	9.068
71.22	8.82
71.44	21.745
71.66	11.833
71.88	6.869
72.1	19.037
72.32	12.058
72.54	18.381
72.76	27.349
72.98	23.614
73.2	9.687
73.42	25.755
73.64	17.802
73.86	7.482
74.08	19.668
74.3	15.605
74.52	6.495
74.74	21.412
74.96	15.234
75.18	18.936
75.4	17.994
75.62	12.558
75.84	3.041
76.06	14.608
76.28	23.04
76.5	2.123
76.72	12.321
76.94	9.672
77.16	18.296
77.38	8.499
77.6	5.766
77.82	14.812
78.04	6.627
78.26	13.653
78.48	29.08
78.7	4.722
78.92	32.642
79.14	15.457
79.36	1.03
79.58	1.993
79.8	3.002
80.02	10.07
80.24	1.56
80.46	15.02
80.68	14.279
80.9	9.364
81.12	20.013
81.34	25.116
81.56	25.816
81.78	6.634
82	6.832
82.22	7.918
82.44	23.265
82.66	18.051
82.88	15.049
83.1	3.905
83.32	10.202
83.54	14.008
83.76	7.016
83.98	19.76
84.2	3.867
84.42	19.914
84.64	14.695
84.86	10.468
85.08	4.428
85.3	1.475
85.52	12.58
85.74	6.397
85.96	2.182
86.18	12.636
86.4	9.387
86.62	6.172
86.84	7.363
87.06	7.245
87.28	16.909
87.5	2.781
87.72	16.761
87.94	16.217
88.16	15.316
88.38	9.082
88.6	16.597
88.82	6.031
89.04	7.813
89.26	12.564
89.48	23.55
89.7	14.383
89.92	1.181
