Measurement: Powder, Xray Data XY Processed
Mineral: Rhodonite
Rruff sample: R060549
Ideal chemistry: CaMn^2+^_3_Mn^2+^Si_5_O_15_
Locality: unknown
Source: Gemological Institute of America
Description: Pink cleavage fragment
Diffraction sample description: Powder
Measured chemistry: (Mn_0.76_Ca_0.12_Fe_0.07_Mg_0.06_)Si_0.99_O_3_
Cell parameters: a: 9.802(2) b: 10.5076(9) c: 12.223(1) alpha: 108.68(1) beta: 103.19(1) gamma: 82.287(7) volume: 1158.6(1) crystal system: triclinic
x	intensity
5	0
5.22	24.2402
5.44	3.59262
5.66	7.20472
5.88	11.9045
6.1	23.0015
6.32	7.47741
6.54	8.60566
6.76	20.5787
6.98	12.1596
7.2	21.2198
7.42	7.89879
7.64	17.6374
7.86	17.2735
8.08	7.67151
8.3	5.55689
8.52	2.14166
8.74	0.415146
8.96	17.1205
9.18	13.8442
9.4	13.1813
9.62	1.72301
9.84	5.73106
10.06	17.4169
10.28	3.49517
10.5	14.1508
10.72	16.7038
10.94	15.7693
11.16	13.8138
11.38	13.9167
11.6	3.5623
11.82	12.9792
12.04	3.64374
12.26	14.2565
12.48	63.3562
12.7	10.0686
12.92	1.82425
13.14	14.2704
13.36	23.3314
13.58	18.758
13.8	19.3257
14.02	11.6718
14.24	7.23888
14.46	7.45121
14.68	4.76543
14.9	3.16681
15.12	3.48445
15.34	18.6899
15.56	19.0441
15.78	12.0809
16	16.0544
16.22	4.68976
16.44	23.8304
16.66	3.43422
16.88	20.6714
17.1	7.02257
17.32	12.827
17.54	1.62914
17.76	10.2463
17.98	1.04425
18.2	11.0791
18.42	11.0255
18.64	36.4615
18.86	12.2705
19.08	8.00424
19.3	15.0863
19.52	11.0457
19.74	5.44904
19.96	5.74162
20.18	25.1486
20.4	9.48733
20.62	7.58835
20.84	24.4952
21.06	6.06426
21.28	3.01336
21.5	14.5488
21.72	23.0194
21.94	12.0796
22.16	19.7339
22.38	6.31317
22.6	5.36503
22.82	11.9774
23.04	9.59445
23.26	14.5388
23.48	10.4625
23.7	1.37177
23.92	10.0239
24.14	3.13881
24.36	7.5996
24.58	8.54316
24.8	16.5859
25.02	46.3622
25.24	15.6673
25.46	18.6686
25.68	12.4733
25.9	20.4032
26.12	10.651
26.34	10.7026
26.56	8.46532
26.78	40.678
27	12.3222
27.22	14.809
27.44	7.05277
27.66	20.7163
27.88	7.39095
28.1	10.0859
28.32	15.1581
28.54	53.4761
28.76	5.13609
28.98	48.9981
29.2	1.74468
29.42	7.79311
29.64	7.85581
29.86	8.30894
30.08	53.0707
30.3	30.384
30.52	60.5491
30.74	13.8478
30.96	7.84363
31.18	17.8435
31.4	14.8976
31.62	6.91158
31.84	11.9258
32.06	27.487
32.28	11.0376
32.5	39.3206
32.72	12.1916
32.94	6.21278
33.16	4.25111
33.38	11.3419
33.6	16.3823
33.82	19.5484
34.04	18.0091
34.26	18.9917
34.48	14.3621
34.7	19.7212
34.92	5.47202
35.14	12.9077
35.36	6.72895
35.58	14.0026
35.8	37.5472
36.02	21.6991
36.24	5.72774
36.46	1.2894
36.68	1.70359
36.9	15.9017
37.12	14.3351
37.34	17.5443
37.56	7.26221
37.78	2.10191
38	21.1962
38.22	1.52348
38.44	4.65161
38.66	8.44244
38.88	7.61855
39.1	8.56319
39.32	10.5551
39.54	1.34151
39.76	0.468689
39.98	8.23145
40.2	11.2964
40.42	11.0471
40.64	31.2568
40.86	24.0374
41.08	10.4493
41.3	21.8381
41.52	42.4287
41.74	18.4134
41.96	10.7973
42.18	23.6623
42.4	11.8522
42.62	18.9467
42.84	8.28144
43.06	0.693069
43.28	14.9056
43.5	20.7162
43.72	14.9469
43.94	11.5761
44.16	6.68335
44.38	19.3465
44.6	4.10143
44.82	11.4553
45.04	9.31255
45.26	5.20352
45.48	13.091
45.7	5.5567
45.92	3.92263
46.14	1.33221
46.36	19.6482
46.58	20.5846
46.8	7.54
47.02	3.70789
47.24	0.594326
47.46	13.3391
47.68	17.4654
47.9	3.29926
48.12	4.28194
48.34	12.8656
48.56	11.4551
48.78	14.9077
49	15.981
49.22	23.3412
49.44	2.64008
49.66	17.9898
49.88	20.0889
50.1	23.3426
50.32	13.2121
50.54	22.1861
50.76	10.859
50.98	20.0795
51.2	0.172466
51.42	12.654
51.64	12.3482
51.86	11.1485
52.08	0.39584
52.3	13.9659
52.52	20.4218
52.74	17.4496
52.96	5.99258
53.18	0.417351
53.4	16.0276
53.62	6.60851
53.84	4.25041
54.06	31.3826
54.28	25.2105
54.5	0.608337
54.72	26.5419
54.94	12.6372
55.16	18.826
55.38	18.2248
55.6	0.771038
55.82	10.2401
56.04	17.9508
56.26	20.2951
56.48	25.2253
56.7	3.93125
56.92	10.8636
57.14	8.20911
57.36	19.2048
57.58	15.4241
57.8	13.4042
58.02	12.0958
58.24	14.8727
58.46	2.8796
58.68	24.7522
58.9	6.73245
59.12	1.416
59.34	9.48346
59.56	11.145
59.78	7.19196
60	15.0089
60.22	20.0581
60.44	1.94365
60.66	4.52219
60.88	8.55098
61.1	5.63058
61.32	31.5999
61.54	4.40615
61.76	14.1997
61.98	0.446239
62.2	19.9842
62.42	5.76067
62.64	8.69906
62.86	8.59322
63.08	14.4035
63.3	24.9746
63.52	9.79694
63.74	7.162
63.96	7.91843
64.18	10.7759
64.4	0.113529
64.62	14.6461
64.84	33.9745
65.06	14.7596
65.28	36.0973
65.5	18.6243
65.72	18.8776
65.94	6.18354
66.16	10.1159
66.38	20.4832
66.6	8.71844
66.82	11.4256
67.04	14.6739
67.26	26.724
67.48	12.1588
67.7	21.4281
67.92	6.40989
68.14	14.2849
68.36	11.4624
68.58	16.1217
68.8	18.374
69.02	7.27146
69.24	21.8824
69.46	0.45142
69.68	12.3801
69.9	4.91932
70.12	9.44427
70.34	0.406067
70.56	21.4069
70.78	12.261
71	4.65665
71.22	6.34463
71.44	7.41108
71.66	8.2301
71.88	7.4932
72.1	17.6949
72.32	7.69597
72.54	22.2407
72.76	0.905621
72.98	20.9732
73.2	12.3212
73.42	9.27606
73.64	8.36695
73.86	11.2532
74.08	13.4597
74.3	9.43114
74.52	8.19556
74.74	14.4205
74.96	21.9091
75.18	16.8133
75.4	4.8081
75.62	7.18707
75.84	5.043
76.06	14.9938
76.28	22.7997
76.5	10.2722
76.72	8.88394
76.94	10.2245
77.16	8.18971
77.38	33.364
77.6	4.15747
77.82	15.4307
78.04	12.5029
78.26	24.8823
78.48	12.8523
78.7	21.438
78.92	6.09102
79.14	8.09943
79.36	5.26508
79.58	15.1859
79.8	5.69164
80.02	7.22977
80.24	13.1234
80.46	0.05658
80.68	9.79805
80.9	8.91473
81.12	4.9885
81.34	2.99215
81.56	23.7513
81.78	1.23459
82	10.8539
82.22	3.38086
82.44	15.5794
82.66	12.6743
82.88	19.5011
83.1	5.01601
83.32	10.8431
83.54	18.861
83.76	14.1134
83.98	3.03217
84.2	13.6936
84.42	16.9914
84.64	14.511
84.86	18.095
85.08	2.16267
85.3	8.09464
85.52	7.08498
85.74	1.25065
85.96	18.0121
86.18	16.8991
86.4	11.4297
86.62	6.946
86.84	10.985
87.06	15.9225
87.28	1.38176
87.5	11.2809
87.72	14.7854
87.94	12.2033
88.16	11.0889
88.38	5.29886
88.6	24.9389
88.82	11.1168
89.04	15.2163
89.26	8.37758
89.48	5.14525
89.7	19.0207
89.92	10.0199
