Measurement: Powder, Xray Data XY Processed
Mineral: Rhodizite
Rruff sample: R050099
Ideal chemistry: KAl_4_Be_5_B_11_O_28_
Locality: Mont Ibity, Antsirabe, Madagascar
Source: Rock Currier
Description: Pale green single crystals
Diffraction sample description: Powder
Measured chemistry: ([box]_0.49_K_0.32_Rb_0.17_Na_0.02_)(Al_3.96_Si_0.04_)_Σ=4_Be_4.00_(B_11.45_Be_0.55_)_Σ=12_O_28_
Cell parameters: a: 7.31532(9) b: 7.31532(9) c: 7.31532(9) alpha: 90. beta: 90. gamma: 90. volume: 391.47(1) crystal system: cubic
x	intensity
5	0
5.22	15.126
5.44	15.653
5.66	13.602
5.88	3.873
6.1	5.369
6.32	9.797
6.54	1.315
6.76	15.719
6.98	12.131
7.2	4.731
7.42	2.58
7.64	11.142
7.86	18.666
8.08	9.327
8.3	5.887
8.52	4.133
8.74	9.564
8.96	8.509
9.18	7.915
9.4	9.105
9.62	10.088
9.84	4.854
10.06	11.595
10.28	3.575
10.5	1.617
10.72	8.211
10.94	17.072
11.16	7.774
11.38	8.595
11.6	4.621
11.82	2.561
12.04	64.384
12.26	28.633
12.48	10.892
12.7	6.11
12.92	12.012
13.14	6.369
13.36	9.779
13.58	5.24
13.8	11.725
14.02	4.948
14.24	4.148
14.46	11.421
14.68	6.626
14.9	4.656
15.12	11.851
15.34	8.935
15.56	5.898
15.78	3.992
16	8.881
16.22	2.808
16.44	0.136
16.66	3.818
16.88	6.804
17.1	17.672
17.32	6.788
17.54	1.917
17.76	7.942
17.98	9.947
18.2	6.803
18.42	6.855
18.64	3.975
18.86	5.262
19.08	7.402
19.3	6.68
19.52	0.358
19.74	13.661
19.96	5.654
20.18	8.843
20.4	5.923
20.62	8.341
20.84	8.532
21.06	15.341
21.28	6.143
21.5	4.428
21.72	11.211
21.94	6.404
22.16	14.106
22.38	4.029
22.6	8.761
22.82	0.482
23.04	1.104
23.26	10.697
23.48	5.49
23.7	9.165
23.92	0.963
24.14	20.184
24.36	475.657
24.58	7.411
24.8	10.105
25.02	6.101
25.24	5.479
25.46	5.103
25.68	12.098
25.9	9.923
26.12	1.203
26.34	6.719
26.56	10.492
26.78	8.812
27	23.217
27.22	82.563
27.44	16.656
27.66	8.307
27.88	5.709
28.1	11.838
28.32	8.12
28.54	8.344
28.76	2.322
28.98	5.142
29.2	2.934
29.42	12.76
29.64	4.665
29.86	88.763
30.08	48.984
30.3	1.999
30.52	9.164
30.74	6.16
30.96	5.123
31.18	0.34
31.4	10.588
31.62	7.009
31.84	9.079
32.06	6.196
32.28	2.207
32.5	4.297
32.72	5.454
32.94	4.558
33.16	5.752
33.38	5.966
33.6	0.067
33.82	0.92
34.04	0.897
34.26	9.947
34.48	6.18
34.7	39.159
34.92	11.428
35.14	24.534
35.36	6.364
35.58	10.171
35.8	9.004
36.02	5.01
36.24	8.026
36.46	0.001
36.68	5.947
36.9	104.881
37.12	12.024
37.34	0.475
37.56	0.408
37.78	11.507
38	6.805
38.22	0.975
38.44	4.153
38.66	4.073
38.88	4.286
39.1	8.493
39.32	8.475
39.54	3.515
39.76	10.348
39.98	0.891
40.2	0.078
40.42	2.565
40.64	9.282
40.86	68.176
41.08	23.068
41.3	8.343
41.52	6.087
41.74	11.516
41.96	2.383
42.18	5.294
42.4	4.229
42.62	17.25
42.84	323.413
43.06	10.914
43.28	15.345
43.5	19.401
43.72	11.56
43.94	6.997
44.16	0.522
44.38	0.318
44.6	8.967
44.82	10.345
45.04	0.68
45.26	1.818
45.48	1.841
45.7	16.71
45.92	12.677
46.14	5.234
46.36	21.341
46.58	106.111
46.8	7.285
47.02	4.309
47.24	7.203
47.46	1.755
47.68	5.14
47.9	5.16
48.12	10.984
48.34	6.092
48.56	8.446
48.78	13.116
49	1.035
49.22	1.929
49.44	7.069
49.66	6.266
49.88	46.279
50.1	7.374
50.32	2.366
50.54	4.425
50.76	4.553
50.98	7.67
51.2	8.028
51.42	21.275
51.64	402.269
51.86	2.133
52.08	6.911
52.3	6.967
52.52	16.352
52.74	5.621
52.96	16.314
53.18	21.237
53.4	9.358
53.62	10.216
53.84	2.424
54.06	5.636
54.28	2.715
54.5	5.055
54.72	10.436
54.94	11.376
55.16	4.297
55.38	0.036
55.6	10.247
55.82	13.541
56.04	2.527
56.26	17.632
56.48	9.588
56.7	0.371
56.92	5.397
57.14	1.901
57.36	8.226
57.58	15.241
57.8	10.34
58.02	4.203
58.24	5.967
58.46	0.066
58.68	4.863
58.9	5.934
59.12	1.753
59.34	19.321
59.56	4.494
59.78	3.569
60	7.625
60.22	0.342
60.44	4.61
60.66	6.67
60.88	6.672
61.1	3.682
61.32	7.648
61.54	7.481
61.76	2.678
61.98	0.411
62.2	14.585
62.42	6.426
62.64	0.435
62.86	2.686
63.08	6.688
63.3	7.755
63.52	14.953
63.74	6.012
63.96	2.939
64.18	2.742
64.4	3.839
64.62	4.988
64.84	4.099
65.06	9.034
65.28	6.866
65.5	10.833
65.72	2.727
65.94	5.617
66.16	1.579
66.38	38.651
66.6	25.686
66.82	8.482
67.04	3.499
67.26	4.503
67.48	4.634
67.7	5.659
67.92	5.689
68.14	0.314
68.36	7.57
68.58	7.721
68.8	3.562
69.02	0.293
69.24	12.469
69.46	2.342
69.68	6.475
69.9	4.593
70.12	2.689
70.34	2.905
70.56	6.096
70.78	1.359
71	5.302
71.22	3.168
71.44	1.203
71.66	4.148
71.88	14.07
72.1	4.86
72.32	2.528
72.54	6.692
72.76	5.612
72.98	3.334
73.2	31.349
73.42	21.369
73.64	7.465
73.86	0.704
74.08	2.701
74.3	0.068
74.52	11.4
74.74	12.513
74.96	2.221
75.18	10.316
75.4	7.529
75.62	4.454
75.84	9.374
76.06	4.332
76.28	5.015
76.5	0.998
76.72	2.124
76.94	6.806
77.16	2.827
77.38	7.018
77.6	3.038
77.82	1.859
78.04	9.445
78.26	3.667
78.48	8.841
78.7	9.07
78.92	6.034
79.14	12.041
79.36	6.117
79.58	12.124
79.8	0.015
80.02	6.982
80.24	4.758
80.46	0.675
80.68	0.789
80.9	18.913
81.12	8.809
81.34	6.85
81.56	7.02
81.78	7.106
82	0.8
82.22	4.345
82.44	1.342
82.66	4.416
82.88	6.285
83.1	7.147
83.32	1.989
83.54	2.922
83.76	2.868
83.98	4.592
84.2	0.306
84.42	4.74
84.64	5.73
84.86	38.933
85.08	23.9
85.3	10.979
85.52	11.955
85.74	1.208
85.96	13.263
86.18	4.412
86.4	12.564
86.62	3.389
86.84	2.468
87.06	3.382
87.28	4.24
87.5	6.202
87.72	13.036
87.94	2.999
88.16	3.779
88.38	4.738
88.6	16.781
88.82	3.582
89.04	1.286
89.26	2.289
89.48	3.462
89.7	2.44
89.92	15.027
