Measurement: Powder, Xray Data XY Processed
Mineral: Rhodochrosite
Rruff sample: R050019
Ideal chemistry: Mn^2+^CO_3_
Locality: Home Sweet Home mine, Colorado, USA
Source: Eugene Schlepp
Description: Pink single crystal rhombs on quartz
Diffraction sample description: Powder
Measured chemistry: Mn_1.00_CO_3_
Cell parameters: a: 4.7806(7) b: 4.7806(7) c: 15.674(9) alpha: 90. beta: 90. gamma: 120. volume: 310.2(1) crystal system: hexagonal
x	intensity
5	0
5.22	15.315
5.44	33.615
5.66	9.678
5.88	20.008
6.1	18.081
6.32	23.793
6.54	26.414
6.76	23.514
6.98	8.273
7.2	19.514
7.42	6.748
7.64	8.92
7.86	10.451
8.08	12.072
8.3	34.885
8.52	25.629
8.74	23.439
8.96	27.235
9.18	15.061
9.4	20.416
9.62	14.437
9.84	8.043
10.06	25.162
10.28	15.184
10.5	17.242
10.72	18.859
10.94	21.21
11.16	16.02
11.38	28.465
11.6	12.824
11.82	16.785
12.04	19.063
12.26	16.829
12.48	11.705
12.7	21.105
12.92	18.106
13.14	12.418
13.36	35.353
13.58	36.549
13.8	18.906
14.02	5.881
14.24	7.959
14.46	1.388
14.68	7.219
14.9	6.142
15.12	22.252
15.34	7.763
15.56	10.333
15.78	4.266
16	27.686
16.22	11.34
16.44	19.562
16.66	23.978
16.88	24.097
17.1	25.06
17.32	12.049
17.54	0.624
17.76	13.442
17.98	23.481
18.2	14.315
18.42	0.787
18.64	8.928
18.86	22.363
19.08	23.561
19.3	25.672
19.52	14.324
19.74	30.215
19.96	10.023
20.18	22.451
20.4	0.685
20.62	15.231
20.84	10.085
21.06	11.437
21.28	12.035
21.5	12.607
21.72	7.798
21.94	26.453
22.16	7.445
22.38	25.601
22.6	40.412
22.82	7.776
23.04	2.22
23.26	0.538
23.48	2.938
23.7	8.246
23.92	6.901
24.14	6.969
24.36	121.207
24.58	23.304
24.8	8.706
25.02	21.101
25.24	6.162
25.46	8.457
25.68	4.667
25.9	10.863
26.12	25.407
26.34	12.528
26.56	11.905
26.78	44.001
27	23.347
27.22	7.789
27.44	0.629
27.66	13.792
27.88	0.553
28.1	7.559
28.32	26.742
28.54	2.691
28.76	11.06
28.98	10.707
29.2	13.769
29.42	17.49
29.64	12.786
29.86	24.012
30.08	3.264
30.3	23.836
30.52	7.866
30.74	7.779
30.96	8.498
31.18	23.547
31.4	194.421
31.62	233.073
31.84	33.066
32.06	19.514
32.28	11.909
32.5	23.014
32.72	14.054
32.94	8.121
33.16	4.111
33.38	22.284
33.6	24.679
33.82	23.217
34.04	24.387
34.26	26.311
34.48	14.417
34.7	2.299
34.92	22.132
35.14	0.778
35.36	25.259
35.58	16.865
35.8	13.177
36.02	12.824
36.24	5.272
36.46	25.459
36.68	20.389
36.9	18.41
37.12	12.908
37.34	8.052
37.56	38.672
37.78	40.989
38	20.181
38.22	13.394
38.44	3.399
38.66	19.707
38.88	28.864
39.1	20.38
39.32	17.952
39.54	25.605
39.76	20.392
39.98	5.611
40.2	15.359
40.42	9.872
40.64	17.396
40.86	30.869
41.08	11.343
41.3	16.021
41.52	30.166
41.74	40.903
41.96	3.244
42.18	4.956
42.4	1.542
42.62	0.695
42.84	15.583
43.06	20.235
43.28	5.539
43.5	16.756
43.72	21.472
43.94	18.063
44.16	14.655
44.38	4.348
44.6	2.278
44.82	1.978
45.04	4.887
45.26	52.753
45.48	50.473
45.7	0.015
45.92	1.876
46.14	10.068
46.36	9.439
46.58	20.539
46.8	15.091
47.02	27.698
47.24	21.234
47.46	32.013
47.68	17.604
47.9	11.407
48.12	18.995
48.34	9.838
48.56	12.881
48.78	4.428
49	19.136
49.22	9.186
49.44	22.941
49.66	8.7
49.88	41.861
50.1	38.534
50.32	22.065
50.54	7.6
50.76	19.989
50.98	17.368
51.2	8.962
51.42	33.082
51.64	120.61
51.86	106.781
52.08	54.391
52.3	22.104
52.52	7.984
52.74	35.099
52.96	16.703
53.18	26.433
53.4	3.733
53.62	12.31
53.84	7.101
54.06	10.085
54.28	18.983
54.5	9.883
54.72	12.673
54.94	31.491
55.16	19.04
55.38	18.947
55.6	8.374
55.82	4.684
56.04	12.747
56.26	39.984
56.48	13.468
56.7	24.299
56.92	24.136
57.14	33.877
57.36	22.276
57.58	0.7
57.8	22.241
58.02	27.251
58.24	43.74
58.46	10.112
58.68	18.468
58.9	8.347
59.12	15.055
59.34	22.671
59.56	19.377
59.78	18.606
60	31.9
60.22	14.64
60.44	28.125
60.66	15.943
60.88	21.312
61.1	17.131
61.32	22.52
61.54	15.558
61.76	29.792
61.98	29.011
62.2	5.257
62.42	20.346
62.64	15.738
62.86	1.364
63.08	11.995
63.3	19.504
63.52	34.538
63.74	27.046
63.96	15.147
64.18	23.128
64.4	18.138
64.62	11.847
64.84	11.115
65.06	19.158
65.28	11.105
65.5	29.084
65.72	33.306
65.94	12.279
66.16	15.982
66.38	14.863
66.6	23.538
66.82	12.249
67.04	33.159
67.26	2.404
67.48	2.924
67.7	33.312
67.92	23.094
68.14	27.931
68.36	18.318
68.58	8.741
68.8	15.64
69.02	6.272
69.24	14.631
69.46	13.678
69.68	18.28
69.9	14.815
70.12	35.156
70.34	31.354
70.56	17.504
70.78	1.856
71	17.399
71.22	27.801
71.44	8.407
71.66	1.122
71.88	17.138
72.1	7.487
72.32	23
72.54	24.476
72.76	10.526
72.98	7.646
73.2	18.396
73.42	26.2
73.64	1.47
73.86	7.752
74.08	25.036
74.3	10.473
74.52	13.024
74.74	11.257
74.96	17.506
75.18	15.612
75.4	3.317
75.62	9.178
75.84	10.46
76.06	19.33
76.28	14.345
76.5	20.212
76.72	20.024
76.94	24.454
77.16	11.671
77.38	7.223
77.6	14.805
77.82	3.38
78.04	14.566
78.26	10.347
78.48	28.581
78.7	24.85
78.92	12.071
79.14	28.84
79.36	20.965
79.58	15.975
79.8	6.873
80.02	1.013
80.24	14.103
80.46	20.015
80.68	10.037
80.9	23.037
81.12	1.666
81.34	12.851
81.56	35.895
81.78	17.533
82	20.507
82.22	23.298
82.44	0.542
82.66	17.433
82.88	9.739
83.1	18.982
83.32	6.472
83.54	10.135
83.76	15.565
83.98	5.019
84.2	35.607
84.42	2.331
84.64	23.521
84.86	2.652
85.08	13.5
85.3	20.364
85.52	5.339
85.74	12.92
85.96	30.653
86.18	26.397
86.4	14.522
86.62	9.605
86.84	6.956
87.06	9.811
87.28	25.593
87.5	5.548
87.72	25.268
87.94	32.034
88.16	17.689
88.38	28.542
88.6	3.284
88.82	24.523
89.04	32.634
89.26	26.562
89.48	20.181
89.7	41.307
89.92	0.223
