Measurement: Powder, Xray Data XY Processed
Mineral: Rhodonite
Rruff sample: R060196
Ideal chemistry: CaMn^2+^_3_Mn^2+^Si_5_O_15_
Locality: Morro da Mina, Minas Gerais, Brazil
Source: Marcus Origlieri
Description: Pink transparent cleavage fragment
Diffraction sample description: Powder
Measured chemistry: (Mn_0.82_Fe_0.06_Mg_0.05_Ca_0.10_)Si_0.99_O_3_
Cell parameters: a: 9.785(5) b: 10.530(3) c: 12.219(4) alpha: 108.69(4) beta: 103.15(5) gamma: 82.27(2) volume: 1158.7(4) crystal system: triclinic
x	intensity
5	0
5.22	0.014
5.44	4.177
5.66	16.015
5.88	0.653
6.1	8.29
6.32	12.948
6.54	7.803
6.76	16.873
6.98	4.829
7.2	7.261
7.42	6.299
7.64	1.428
7.86	15.026
8.08	4.224
8.3	17.517
8.52	12.863
8.74	12.153
8.96	5.027
9.18	6.677
9.4	5.067
9.62	24.895
9.84	15.876
10.06	17.103
10.28	2.168
10.5	12.433
10.72	8.445
10.94	3.093
11.16	1.114
11.38	0.818
11.6	5.051
11.82	7.482
12.04	13.532
12.26	21.439
12.48	30.248
12.7	15.062
12.92	7.372
13.14	29.246
13.36	15.532
13.58	13.156
13.8	15.042
14.02	10.677
14.24	2.894
14.46	17.685
14.68	2.059
14.9	6.136
15.12	3.655
15.34	21.169
15.56	10.52
15.78	10.386
16	11.79
16.22	3.182
16.44	15.256
16.66	19.026
16.88	13.136
17.1	14.169
17.32	0.929
17.54	13.769
17.76	10.702
17.98	2.801
18.2	8.081
18.42	15.286
18.64	40.844
18.86	12.721
19.08	16.385
19.3	17.344
19.52	8.819
19.74	15.586
19.96	22.405
20.18	20.425
20.4	15.148
20.62	23.693
20.84	3.694
21.06	18.044
21.28	2.188
21.5	26.232
21.72	23.192
21.94	14.472
22.16	3.471
22.38	21.495
22.6	6.408
22.82	9.339
23.04	4.563
23.26	20.657
23.48	7.62
23.7	2.237
23.92	12.256
24.14	7.093
24.36	10.785
24.58	24.379
24.8	18.007
25.02	20.059
25.24	13.344
25.46	2.727
25.68	13.16
25.9	1.109
26.12	8.358
26.34	24.306
26.56	9.277
26.78	38.12
27	0.074
27.22	2.124
27.44	28.812
27.66	8.15
27.88	11.059
28.1	8.839
28.32	13.605
28.54	20.549
28.76	20.616
28.98	45.307
29.2	4.993
29.42	14.111
29.64	3.638
29.86	1.395
30.08	60.013
30.3	7.296
30.52	61.869
30.74	7.77
30.96	2.657
31.18	7.155
31.4	6.2
31.62	16.184
31.84	8.995
32.06	11.428
32.28	20.905
32.5	50.338
32.72	10.239
32.94	23.938
33.16	5.137
33.38	8.859
33.6	7.725
33.82	33.559
34.04	25.547
34.26	6.067
34.48	3.463
34.7	22.252
34.92	1.688
35.14	14.889
35.36	12.96
35.58	13.101
35.8	24.164
36.02	9.266
36.24	11.329
36.46	11.903
36.68	11.033
36.9	12.434
37.12	16.041
37.34	21.145
37.56	17.747
37.78	16.894
38	17.054
38.22	5.013
38.44	17.329
38.66	5.144
38.88	8.759
39.1	13.892
39.32	2.466
39.54	3.812
39.76	27.519
39.98	12.773
40.2	13.453
40.42	14.123
40.64	23.176
40.86	4.709
41.08	18.711
41.3	19.822
41.52	23.59
41.74	8.657
41.96	10.219
42.18	10.115
42.4	7.85
42.62	14.239
42.84	40.603
43.06	7.637
43.28	11.965
43.5	9.749
43.72	13.829
43.94	11.383
44.16	13.715
44.38	26.49
44.6	11.179
44.82	14.061
45.04	13.184
45.26	6.201
45.48	2.21
45.7	12.399
45.92	13.665
46.14	7.532
46.36	19.417
46.58	19.618
46.8	15.548
47.02	0.87
47.24	16.063
47.46	12.698
47.68	7.741
47.9	8.534
48.12	17.026
48.34	1.161
48.56	8.936
48.78	25.311
49	18.363
49.22	0.371
49.44	0.92
49.66	3.832
49.88	17.619
50.1	14.388
50.32	17.808
50.54	17.985
50.76	18.227
50.98	2.414
51.2	5.331
51.42	14.402
51.64	6.415
51.86	14.185
52.08	7.986
52.3	13.826
52.52	19.465
52.74	11.161
52.96	20.712
53.18	7.94
53.4	3.393
53.62	8.452
53.84	7.005
54.06	29.642
54.28	18.368
54.5	17.812
54.72	4.819
54.94	1.107
55.16	0.523
55.38	23.788
55.6	19.939
55.82	4.459
56.04	1.16
56.26	13.512
56.48	24.78
56.7	8.61
56.92	21.789
57.14	18.879
57.36	1.963
57.58	22.528
57.8	14.029
58.02	24.292
58.24	17.631
58.46	1.624
58.68	13.476
58.9	1.418
59.12	16.424
59.34	4.423
59.56	9.108
59.78	10.913
60	8.977
60.22	13.221
60.44	7.829
60.66	13.839
60.88	3.217
61.1	21.459
61.32	7.306
61.54	4.823
61.76	18.667
61.98	17.885
62.2	7.278
62.42	14.309
62.64	7.232
62.86	9.221
63.08	15.122
63.3	7.054
63.52	21.164
63.74	6.194
63.96	12.256
64.18	17.255
64.4	6.846
64.62	3.86
64.84	19.667
65.06	15.41
65.28	36.278
65.5	22.949
65.72	22.67
65.94	17.016
66.16	5.925
66.38	11.038
66.6	16.161
66.82	13.365
67.04	18.48
67.26	3.159
67.48	2.208
67.7	7.503
67.92	10.862
68.14	14.507
68.36	16.714
68.58	5.381
68.8	6.677
69.02	15.67
69.24	5.626
69.46	6.488
69.68	19.418
69.9	10.975
70.12	18.062
70.34	17.011
70.56	23.906
70.78	11.863
71	14.919
71.22	13.618
71.44	12.69
71.66	2.237
71.88	20.188
72.1	17.336
72.32	11.645
72.54	23.328
72.76	0.039
72.98	23.663
73.2	18.994
73.42	10.58
73.64	13.133
73.86	23.959
74.08	5.786
74.3	18.927
74.52	9.42
74.74	11.169
74.96	22.01
75.18	7.18
75.4	11.485
75.62	7.05
75.84	3.276
76.06	16.486
76.28	2.222
76.5	16.789
76.72	12.688
76.94	3.071
77.16	13.453
77.38	11.18
77.6	8.203
77.82	0.33
78.04	19.465
78.26	0.997
78.48	20.142
78.7	5.927
78.92	9.82
79.14	13.566
79.36	5.909
79.58	10.627
79.8	13.521
80.02	5.787
80.24	5.031
80.46	28.716
80.68	2.139
80.9	16.218
81.12	9.083
81.34	12.251
81.56	17.684
81.78	16.731
82	6.822
82.22	7.116
82.44	9.498
82.66	22.542
82.88	28.649
83.1	4.245
83.32	9.04
83.54	15.874
83.76	19.646
83.98	21.241
84.2	15.07
84.42	25.913
84.64	14.508
84.86	11.03
85.08	4.757
85.3	1.393
85.52	26.166
85.74	5.501
85.96	6.591
86.18	12.224
86.4	21.019
86.62	16.182
86.84	5.167
87.06	4.352
87.28	30.818
87.5	21.974
87.72	8.308
87.94	11.345
88.16	19.415
88.38	1.642
88.6	1.764
88.82	10.452
89.04	15.528
89.26	7.086
89.48	7.524
89.7	0.833
89.92	19.913
