Measurement: Powder, Xray Data XY Processed
Mineral: Rhodochrosite
Rruff sample: R040133
Ideal chemistry: Mn^2+^CO_3_
Locality: Imuris, Sonora, Mexico
Source: University of Arizona Mineral Museum
Description: Pink cleavage fragment
Diffraction sample description: Powder
Measured chemistry: (Mn_0.92_Mg_0.02_Ca_0.01_)C_1.02_O_3_
Cell parameters: a: 4.7707(3) b: 4.7707(3) c: 15.628(8) alpha: 90. beta: 90. gamma: 120. volume: 308.0(1) crystal system: hexagonal
x	intensity
5	0
5.22	43.595
5.44	12.7657
5.66	23.0391
5.88	22.7598
6.1	23.0685
6.32	4.52236
6.54	7.86623
6.76	32.0185
6.98	8.11776
7.2	29.7022
7.42	21.6402
7.64	4.8936
7.86	14.6416
8.08	14.5757
8.3	27.3561
8.52	15.3167
8.74	4.32156
8.96	11.9184
9.18	11.5101
9.4	34.6901
9.62	12.6605
9.84	25.1951
10.06	10.5779
10.28	3.71167
10.5	39.0015
10.72	29.2325
10.94	31.307
11.16	21.1002
11.38	20.4046
11.6	8.49426
11.82	0.195786
12.04	27.8974
12.26	18.1837
12.48	17.1552
12.7	16.8934
12.92	12.5085
13.14	41.2153
13.36	16.2131
13.58	14.0227
13.8	21.172
14.02	32.2449
14.24	31.0548
14.46	5.76498
14.68	18.7858
14.9	30.1252
15.12	13.6524
15.34	12.2745
15.56	4.02714
15.78	26.348
16	12.0952
16.22	31.9819
16.44	18.9416
16.66	27.7967
16.88	17.7482
17.1	7.66348
17.32	22.9704
17.54	4.52879
17.76	12.5031
17.98	5.25967
18.2	4.70942
18.42	25.9943
18.64	4.28931
18.86	10.5926
19.08	10.2469
19.3	18.2758
19.52	10.5483
19.74	26.1445
19.96	4.15923
20.18	13.9415
20.4	25.9949
20.62	4.71455
20.84	8.62267
21.06	33.2022
21.28	22.4543
21.5	1.48362
21.72	13.5307
21.94	21.691
22.16	3.75256
22.38	16.2522
22.6	12.774
22.82	31.6091
23.04	13.8461
23.26	10.2654
23.48	9.77018
23.7	11.4257
23.92	19.7968
24.14	42.4012
24.36	177.567
24.58	31.3712
24.8	13.4218
25.02	1.22576
25.24	10.9375
25.46	11.2465
25.68	12.7171
25.9	36.2313
26.12	19.2052
26.34	10.8365
26.56	34.4513
26.78	17.4018
27	11.9735
27.22	16.6808
27.44	16.8945
27.66	29.533
27.88	11.4032
28.1	29.7322
28.32	13.7669
28.54	12.6146
28.76	18.4259
28.98	8.7544
29.2	17.4104
29.42	21.5213
29.64	10.7127
29.86	17.1444
30.08	2.95611
30.3	10.0412
30.52	1.55202
30.74	27.5183
30.96	11.9265
31.18	61.624
31.4	264.416
31.62	256.645
31.84	39.5287
32.06	9.81856
32.28	7.43374
32.5	0.074158
32.72	7.76847
32.94	15.8602
33.16	14.5999
33.38	0.397484
33.6	1.05542
33.82	35.6093
34.04	19.9796
34.26	9.15348
34.48	6.83704
34.7	25.3831
34.92	3.55527
35.14	5.95761
35.36	3.74139
35.58	17.4364
35.8	26.2058
36.02	18.4641
36.24	8.926
36.46	25.0643
36.68	15.5004
36.9	19.1157
37.12	31.1601
37.34	7.74115
37.56	27.6609
37.78	57.6701
38	7.49686
38.22	17.5787
38.44	15.462
38.66	23.7298
38.88	14.1093
39.1	2.531
39.32	35.5071
39.54	33.7658
39.76	9.17036
39.98	9.15564
40.2	14.8861
40.42	16.3715
40.64	19.5067
40.86	22.8549
41.08	2.4418
41.3	25.9414
41.52	20.1459
41.74	63.5087
41.96	13.3066
42.18	14.0538
42.4	15.761
42.62	3.05584
42.84	17.4749
43.06	4.67184
43.28	8.79411
43.5	15.6356
43.72	15.6871
43.94	22.419
44.16	9.16719
44.38	20.3781
44.6	5.26313
44.82	23.307
45.04	5.5932
45.26	42.2324
45.48	73.8493
45.7	22.426
45.92	21.0779
46.14	16.4533
46.36	16.8038
46.58	19.1006
46.8	12.9751
47.02	9.22787
47.24	15.0093
47.46	29.2162
47.68	24.3882
47.9	27.6112
48.12	4.80528
48.34	14.4564
48.56	18.7782
48.78	14.8425
49	1.76331
49.22	15.4815
49.44	31.9186
49.66	23.7242
49.88	58.2431
50.1	28.1115
50.32	15.1854
50.54	15.3666
50.76	10.2918
50.98	12.9582
51.2	9.98584
51.42	56.7682
51.64	140.882
51.86	140.53
52.08	67.3776
52.3	2.55025
52.52	23.7106
52.74	22.4512
52.96	28.4966
53.18	40.7189
53.4	35.3002
53.62	3.12726
53.84	30.9137
54.06	29.7409
54.28	17.0359
54.5	25.9738
54.72	28.2855
54.94	20.0626
55.16	10.5003
55.38	23.4516
55.6	17.6495
55.82	18.5777
56.04	15.5896
56.26	9.97527
56.48	5.04932
56.7	9.18262
56.92	19.6697
57.14	10.449
57.36	12.6502
57.58	41.0857
57.8	14.0625
58.02	11.9832
58.24	24.5661
58.46	20.0542
58.68	26.0842
58.9	32.738
59.12	27.1293
59.34	17.394
59.56	8.1048
59.78	4.1592
60	22.6388
60.22	39.5239
60.44	45.2411
60.66	25.7084
60.88	22.6471
61.1	20.7221
61.32	26.0444
61.54	11.1323
61.76	0.563286
61.98	26.9515
62.2	22.2296
62.42	18.6249
62.64	12.5326
62.86	17.5711
63.08	24.2716
63.3	11.9836
63.52	32.9812
63.74	8.36299
63.96	24.193
64.18	37.7317
64.4	6.22927
64.62	11.4929
64.84	11.6882
65.06	1.71793
65.28	23.932
65.5	15.5804
65.72	41.772
65.94	19.5554
66.16	22.4348
66.38	37.5481
66.6	12.5302
66.82	42.2731
67.04	29.0044
67.26	2.77744
67.48	5.15367
67.7	33.6038
67.92	31.5699
68.14	26.0607
68.36	22.5504
68.58	14.3675
68.8	5.63705
69.02	8.30003
69.24	24.4159
69.46	26.4377
69.68	8.17046
69.9	39.6599
70.12	2.03822
70.34	38.5743
70.56	13.5409
70.78	5.68795
71	15.2409
71.22	0.006256
71.44	19.3383
71.66	10.5398
71.88	18.4533
72.1	14.2604
72.32	32.0493
72.54	26.9539
72.76	26.8746
72.98	16.1419
73.2	26.1619
73.42	8.99055
73.64	22.5014
73.86	0.2938
74.08	34.8447
74.3	21.7502
74.52	51.0203
74.74	16.1548
74.96	8.50954
75.18	19.0957
75.4	10.8547
75.62	7.40019
75.84	29.5127
76.06	1.71121
76.28	1.66505
76.5	33.836
76.72	11.9882
76.94	9.1676
77.16	19.6455
77.38	23.0521
77.6	19.8345
77.82	30.7207
78.04	27.7234
78.26	25.2049
78.48	6.95177
78.7	17.5894
78.92	22.9445
79.14	7.56686
79.36	25.462
79.58	0.609856
79.8	40.1153
80.02	27.2772
80.24	2.76863
80.46	13.2074
80.68	53.9839
80.9	16.6596
81.12	23.1078
81.34	3.96003
81.56	13.29
81.78	10.4296
82	10.7291
82.22	5.6042
82.44	15.7188
82.66	14.201
82.88	17.4522
83.1	1.94759
83.32	6.7432
83.54	9.37474
83.76	16.3731
83.98	4.12093
84.2	10.0846
84.42	13.3112
84.64	25.8968
84.86	32.3524
85.08	12.0426
85.3	9.34534
85.52	4.52754
85.74	14.3767
85.96	15.836
86.18	3.36034
86.4	21.4886
86.62	8.50744
86.84	28.7526
87.06	26.0607
87.28	30.2824
87.5	23.6831
87.72	7.13836
87.94	4.1449
88.16	15.4875
88.38	17.0935
88.6	10.4042
88.82	45.291
89.04	7.3308
89.26	18.1022
89.48	21.538
89.7	7.81012
89.92	37.1432
