Measurement: Powder, Xray Data XY Processed
Mineral: Rhodochrosite
Rruff sample: R050116
Ideal chemistry: Mn^2+^CO_3_
Locality: Wudong mine, Liubao, Guangxi Autonomous Region, China
Source: He Xin Jian
Description: Pink crystal associated with colorless quartz
Diffraction sample description: Powder
Measured chemistry: (Mn_0.81_Fe_0.17_Mg_0.01_Ca_0.01_)CO_3_
Cell parameters: a: 4.7616(1) b: 4.7616(1) c: 15.6258(6) alpha: 90. beta: 90. gamma: 120. volume: 306.82(2) crystal system: hexagonal
x	intensity
5	0
5.22	16.839
5.44	12.994
5.66	16.653
5.88	9.387
6.1	12.769
6.32	19.24
6.54	34.17
6.76	8.932
6.98	31.427
7.2	31.646
7.42	14.199
7.64	23.186
7.86	6.907
8.08	16.287
8.3	5.974
8.52	11.242
8.74	5.61
8.96	16.627
9.18	8.905
9.4	9.904
9.62	18.701
9.84	10.934
10.06	16.976
10.28	8.058
10.5	20.752
10.72	8.063
10.94	21.447
11.16	16.433
11.38	11.416
11.6	7.707
11.82	13.673
12.04	18.801
12.26	9.476
12.48	8.093
12.7	22.365
12.92	26.909
13.14	15.544
13.36	25.547
13.58	10.436
13.8	2.851
14.02	29.448
14.24	26.712
14.46	12.98
14.68	33.237
14.9	19.678
15.12	17.065
15.34	6.679
15.56	14.355
15.78	22.581
16	24.285
16.22	19.167
16.44	10.096
16.66	25.851
16.88	9.576
17.1	26.631
17.32	3.504
17.54	2.264
17.76	19.111
17.98	6.228
18.2	6.816
18.42	14.919
18.64	36.109
18.86	18.006
19.08	21.733
19.3	26.751
19.52	4.726
19.74	2.217
19.96	10.868
20.18	6.826
20.4	4.552
20.62	0.384
20.84	21.146
21.06	5.521
21.28	31.868
21.5	23.224
21.72	3.652
21.94	7.682
22.16	21.544
22.38	21.786
22.6	2.224
22.82	35.139
23.04	11.223
23.26	20.57
23.48	6.656
23.7	11.526
23.92	31.953
24.14	19.395
24.36	125.067
24.58	34.205
24.8	20.602
25.02	26.874
25.24	4.917
25.46	19.507
25.68	15.3
25.9	26.218
26.12	15.352
26.34	19.827
26.56	38.193
26.78	4.887
27	12.394
27.22	17.149
27.44	3.427
27.66	22.962
27.88	20.011
28.1	26.753
28.32	24.767
28.54	16.819
28.76	21.217
28.98	11.599
29.2	17.656
29.42	25.83
29.64	10.987
29.86	24.385
30.08	14.726
30.3	9.605
30.52	16.497
30.74	1.867
30.96	13.465
31.18	19.363
31.4	126.003
31.62	697.115
31.84	57.748
32.06	3.417
32.28	6.677
32.5	1.469
32.72	1.071
32.94	22.679
33.16	27.167
33.38	0.688
33.6	22.47
33.82	22.382
34.04	51.49
34.26	25.925
34.48	18.622
34.7	9.867
34.92	21.594
35.14	19.365
35.36	19.325
35.58	10.791
35.8	12.198
36.02	2.384
36.24	10.548
36.46	10.573
36.68	10.445
36.9	32.036
37.12	28.15
37.34	18.684
37.56	25.149
37.78	81.965
38	25.751
38.22	27.074
38.44	9.622
38.66	13.877
38.88	35.908
39.1	20.889
39.32	41.451
39.54	28.387
39.76	6.051
39.98	32.353
40.2	13.763
40.42	4.957
40.64	11.486
40.86	17.93
41.08	9.973
41.3	15.897
41.52	25.854
41.74	50.536
41.96	7.607
42.18	1.49
42.4	20.223
42.62	12.188
42.84	7.795
43.06	10.621
43.28	10.871
43.5	9.153
43.72	7.902
43.94	19.754
44.16	0.571
44.38	10.43
44.6	45.509
44.82	31.082
45.04	2.637
45.26	19.618
45.48	86.423
45.7	19.152
45.92	0.757
46.14	20.87
46.36	11.901
46.58	17.074
46.8	21.875
47.02	7.354
47.24	18.528
47.46	20.465
47.68	9.717
47.9	17.686
48.12	10.027
48.34	28.723
48.56	33.41
48.78	16.038
49	26.735
49.22	21.606
49.44	31.306
49.66	0.91
49.88	18.132
50.1	29.926
50.32	19.957
50.54	17.626
50.76	1.742
50.98	33.002
51.2	17.416
51.42	11.995
51.64	73.611
51.86	58.74
52.08	78.075
52.3	43.843
52.52	31.244
52.74	9.794
52.96	13.754
53.18	25.646
53.4	4.175
53.62	22.546
53.84	11.067
54.06	24.454
54.28	7.694
54.5	10.255
54.72	42.588
54.94	10.699
55.16	16.39
55.38	15.788
55.6	44.64
55.82	15.507
56.04	22.136
56.26	14.704
56.48	23.854
56.7	27.952
56.92	8.764
57.14	12.879
57.36	14.604
57.58	1.57
57.8	23.287
58.02	10.345
58.24	38.647
58.46	15.422
58.68	17.374
58.9	30.194
59.12	21.605
59.34	8.687
59.56	0.74
59.78	7.201
60	20.436
60.22	25.34
60.44	25.962
60.66	19.246
60.88	25.741
61.1	17.921
61.32	0.483
61.54	26.383
61.76	6.793
61.98	21.219
62.2	1.55
62.42	19.621
62.64	1.975
62.86	26.422
63.08	6.129
63.3	27.593
63.52	13.99
63.74	16.686
63.96	13.421
64.18	23.668
64.4	32.545
64.62	8.906
64.84	11.314
65.06	9.865
65.28	0.287
65.5	3.591
65.72	14.559
65.94	2.62
66.16	23.3
66.38	0.214
66.6	8.53
66.82	14.541
67.04	24.871
67.26	42.314
67.48	25.957
67.7	31.081
67.92	3.483
68.14	26.98
68.36	27.423
68.58	11.483
68.8	2.959
69.02	20.6
69.24	13.351
69.46	16.732
69.68	24.058
69.9	39.854
70.12	23.152
70.34	1.481
70.56	12.54
70.78	23.406
71	20.662
71.22	8.222
71.44	13.773
71.66	23.582
71.88	23.683
72.1	20.553
72.32	29.969
72.54	34.536
72.76	20.908
72.98	11.559
73.2	16.865
73.42	25.164
73.64	6.443
73.86	0.328
74.08	28.583
74.3	1.794
74.52	22.247
74.74	12.464
74.96	5.931
75.18	24.22
75.4	8.165
75.62	7.845
75.84	16.819
76.06	20.243
76.28	17.495
76.5	14.36
76.72	0.732
76.94	6.862
77.16	14.849
77.38	18.618
77.6	16.876
77.82	11.955
78.04	1.647
78.26	4.194
78.48	10.874
78.7	47.787
78.92	15.59
79.14	5.455
79.36	2.098
79.58	14.01
79.8	1.025
80.02	5.004
80.24	10.442
80.46	14.894
80.68	10.911
80.9	1.233
81.12	17.138
81.34	3.963
81.56	3.634
81.78	15.252
82	1.824
82.22	25.237
82.44	31.44
82.66	29.479
82.88	20.685
83.1	8.758
83.32	16.849
83.54	18.044
83.76	31.197
83.98	11.892
84.2	18.856
84.42	26.749
84.64	20.872
84.86	31.749
85.08	19.652
85.3	2.999
85.52	4.565
85.74	12.828
85.96	2.998
86.18	16.798
86.4	16.635
86.62	16.72
86.84	5.153
87.06	25.846
87.28	7.313
87.5	4.411
87.72	2.895
87.94	9.466
88.16	21.086
88.38	13.872
88.6	11.694
88.82	21.314
89.04	11.479
89.26	34.523
89.48	19.606
89.7	4.164
89.92	6.871
