Measurement: Powder, Xray Data XY Processed
Mineral: Richterite
Rruff sample: R060471
Ideal chemistry: Na(CaNa)Mg_5_Si_8_O_22_(OH)_2_
Locality: Kipawa Complex, Villedieu Township, Quebec, Canada
Source: Michael Scott
Description: Black platy fragment embedded in albite
Diffraction sample description: Powder
Measured chemistry: (Na_0.52_K_0.40_[box]_0.08_)(Na_1.60_Ca_0.40_)_=2_(Mg_4.25_Mn_0.75_)_=5_Si_8_O_22_(OH)_2_
Cell parameters: a: 9.8914(4) b: 17.963(1) c: 5.2786(3) alpha: 90. beta: 104.274(5) gamma: 90. volume: 908.96(6) crystal system: monoclinic
x	intensity
5	0
5.22	7.63426
5.44	14.5093
5.66	4.24834
5.88	15.4959
6.1	16.5772
6.32	15.1062
6.54	8.88975
6.76	12.8781
6.98	23.0365
7.2	8.01755
7.42	0.218159
7.64	16.1467
7.86	6.67026
8.08	5.93938
8.3	13.1494
8.52	14.2521
8.74	12.4716
8.96	2.83329
9.18	7.21033
9.4	4.19992
9.62	4.091
9.84	4.13479
10.06	12.1721
10.28	21.6099
10.5	151.94
10.72	12.4423
10.94	14.4561
11.16	9.83305
11.38	6.40426
11.6	5.3224
11.82	9.25234
12.04	13.5425
12.26	3.56967
12.48	13.7241
12.7	9.39977
12.92	2.1229
13.14	0.277983
13.36	6.31842
13.58	7.23231
13.8	7.39342
14.02	11.5694
14.24	2.39396
14.46	3.21785
14.68	20.1391
14.9	6.95858
15.12	5.16115
15.34	19.0027
15.56	10.5639
15.78	18.4833
16	6.45594
16.22	9.99431
16.44	5.67607
16.66	0.167255
16.88	2.81822
17.1	2.09249
17.32	14.978
17.54	9.58602
17.76	3.45551
17.98	11.6571
18.2	11.6604
18.42	15.4161
18.64	12.3166
18.86	2.15708
19.08	1.90759
19.3	5.04574
19.52	12.0823
19.74	3.14499
19.96	12.0519
20.18	8.27976
20.4	9.99335
20.62	12.3614
20.84	11.5929
21.06	14.6402
21.28	7.7131
21.5	6.51982
21.72	8.79843
21.94	2.64469
22.16	6.71763
22.38	5.88193
22.6	3.66219
22.82	7.70525
23.04	13.0339
23.26	13.6763
23.48	7.55256
23.7	11.4149
23.92	5.11726
24.14	6.85457
24.36	15.1366
24.58	8.4968
24.8	7.98072
25.02	10.9445
25.24	3.00142
25.46	4.32017
25.68	5.18661
25.9	9.92592
26.12	11.0501
26.34	116.83
26.56	13.8616
26.78	14.9073
27	12.0237
27.22	54.0955
27.44	19.8628
27.66	10.0164
27.88	18.6132
28.1	13.0554
28.32	15.8246
28.54	30.8755
28.76	15.9841
28.98	19.4443
29.2	6.79841
29.42	7.70789
29.64	7.65432
29.86	7.26711
30.08	6.39703
30.3	37.3955
30.52	10.7678
30.74	6.60873
30.96	9.87064
31.18	21.4244
31.4	15.4985
31.62	13.2474
31.84	54.0551
32.06	0.89938
32.28	15.8479
32.5	8.80738
32.72	9.75934
32.94	30.5717
33.16	129.848
33.38	14.7978
33.6	26.3531
33.82	2.84736
34.04	3.79075
34.26	2.1366
34.48	18.159
34.7	22.2038
34.92	4.12605
35.14	7.64876
35.36	16.0457
35.58	33.1574
35.8	19.8472
36.02	13.8942
36.24	13.1827
36.46	1.31418
36.68	10.0069
36.9	15.4479
37.12	3.01931
37.34	19.145
37.56	9.76101
37.78	24.6183
38	2.32811
38.22	6.58087
38.44	10.2762
38.66	36.0147
38.88	11.1576
39.1	1.97531
39.32	16.2208
39.54	17.8437
39.76	16.5664
39.98	2.3229
40.2	18.0791
40.42	11.9193
40.64	24.8791
40.86	16.8466
41.08	9.98391
41.3	1.10627
41.52	22.2252
41.74	59.7584
41.96	15.0302
42.18	7.22997
42.4	3.56958
42.62	1.65735
42.84	7.16466
43.06	11.3706
43.28	2.77172
43.5	10.2096
43.72	11.2659
43.94	9.16488
44.16	16.1583
44.38	28.3117
44.6	3.94376
44.82	23.6195
45.04	16.2911
45.26	7.85372
45.48	12.8678
45.7	7.25958
45.92	14.0029
46.14	8.12342
46.36	17.696
46.58	10.5504
46.8	27.9862
47.02	6.47265
47.24	13.3208
47.46	16.0621
47.68	9.24127
47.9	5.15281
48.12	9.04286
48.34	19.187
48.56	13.3988
48.78	17.2286
49	3.68557
49.22	20.84
49.44	7.87413
49.66	17.191
49.88	13.1236
50.1	2.45651
50.32	0.164722
50.54	8.39479
50.76	19.7474
50.98	18.6644
51.2	1.88851
51.42	6.85951
51.64	16.9999
51.86	8.82196
52.08	1.02093
52.3	7.36751
52.52	15.0656
52.74	17.5162
52.96	12.6781
53.18	6.71476
53.4	13.0602
53.62	10.5148
53.84	9.4647
54.06	5.95739
54.28	12.6051
54.5	15.9288
54.72	27.305
54.94	4.92063
55.16	13.8907
55.38	15.0132
55.6	71.6417
55.82	5.08516
56.04	16.3717
56.26	8.9183
56.48	16.8566
56.7	7.97084
56.92	11.9002
57.14	9.69744
57.36	21.3397
57.58	20.4714
57.8	16.2529
58.02	13.7257
58.24	4.34124
58.46	8.16339
58.68	19.8713
58.9	9.13861
59.12	17.1417
59.34	6.22642
59.56	8.3514
59.78	4.89191
60	2.05077
60.22	16.8874
60.44	29.82
60.66	2.74774
60.88	3.11831
61.1	19.581
61.32	19.3306
61.54	17.5048
61.76	6.48633
61.98	23.1306
62.2	15.4686
62.42	12.5805
62.64	8.67793
62.86	12.7789
63.08	9.39249
63.3	14.383
63.52	17.3027
63.74	11.0679
63.96	5.86361
64.18	16.6235
64.4	15.01
64.62	42.3634
64.84	39.0564
65.06	27.4753
65.28	9.50565
65.5	14.6293
65.72	18.9099
65.94	9.41568
66.16	0.921808
66.38	12.7972
66.6	7.43222
66.82	7.89679
67.04	8.07374
67.26	8.29303
67.48	18.3686
67.7	17.3987
67.92	14.3251
68.14	14.227
68.36	25.8937
68.58	7.62147
68.8	16.3631
69.02	1.79574
69.24	8.00777
69.46	6.80057
69.68	8.49241
69.9	2.40105
70.12	6.30593
70.34	9.38697
70.56	14.1408
70.78	14.7319
71	22.9337
71.22	4.46256
71.44	0.467941
71.66	24.4582
71.88	23.2415
72.1	8.13923
72.32	14.9101
72.54	13.7406
72.76	17.7376
72.98	5.31319
73.2	12.4034
73.42	24.4817
73.64	9.65925
73.86	4.66244
74.08	7.63532
74.3	18.2889
74.52	2.43744
74.74	8.93036
74.96	19.0532
75.18	8.91497
75.4	14.8709
75.62	13.0739
75.84	13.2466
76.06	4.28794
76.28	4.83695
76.5	11.3054
76.72	1.85881
76.94	22.0941
77.16	27.8645
77.38	10.91
77.6	6.86531
77.82	12.0314
78.04	4.67875
78.26	15.8096
78.48	7.69979
78.7	0.324049
78.92	5.8525
79.14	12.6388
79.36	4.52287
79.58	7.58204
79.8	26.7298
80.02	5.7904
80.24	21.5628
80.46	12.4544
80.68	4.4556
80.9	8.64621
81.12	6.76222
81.34	2.12624
81.56	1.89652
81.78	9.75083
82	12.6665
82.22	14.7849
82.44	10.3724
82.66	9.57798
82.88	9.76414
83.1	13.8296
83.32	11.5764
83.54	6.52896
83.76	7.63781
83.98	2.36091
84.2	1.80305
84.42	24.3697
84.64	7.43021
84.86	13.7276
85.08	7.98781
85.3	7.05179
85.52	11.0801
85.74	24.9076
85.96	2.97369
86.18	13.2414
86.4	14.2614
86.62	5.27641
86.84	19.3171
87.06	24.5125
87.28	4.68313
87.5	9.85526
87.72	7.18276
87.94	7.30988
88.16	7.10279
88.38	16.3601
88.6	13.1829
88.82	3.33759
89.04	12.0736
89.26	21.8372
89.48	9.97922
89.7	1.64503
89.92	7.01791
