Measurement: Powder, Xray Data XY Processed
Mineral: Riebeckite
Rruff sample: R050082
Ideal chemistry: [box]Na_2_(Fe^2+^_3_Fe^3+^_2_)Si_8_O_22_(OH)_2_
Locality: Mt. Malosa, Zomba, Chilwa, Alkaline Area, Malawi
Source: Rock Currier
Description: Black elongated prisms
Diffraction sample description: Powder
Measured chemistry: ([box]_0.63_Na_0.19_K_0.18_)(Na_1.58_Ca_0.42_)_Σ=2_Fe^2+^_3.00_(Fe^3+^_1.30_Fe^2+^_0.45_Mn_0.15_Mg_0.05_Ti_0.05_)_Σ=2_(Si_0.98_Al_0.02_)_8_O_22_(OH)_2_
Cell parameters: a: 9.895(3) b: 18.103(3) c: 5.338(2) alpha: 90 beta: 103.59(2) gamma: 90 volume: 929.3(0) crystal system: monoclinic
x	intensity
5	0
5.22	12.251
5.44	23.53
5.66	35.263
5.88	35.104
6.1	31.022
6.32	25.834
6.54	26.106
6.76	43.93
6.98	20.618
7.2	7.663
7.42	14.407
7.64	26.784
7.86	7.826
8.08	24.604
8.3	9.791
8.52	8.991
8.74	11.107
8.96	4.227
9.18	33.787
9.4	19.647
9.62	7.42
9.84	18.409
10.06	12.865
10.28	27.245
10.5	502.044
10.72	29.942
10.94	33.578
11.16	19.652
11.38	27.485
11.6	12.588
11.82	12.113
12.04	3.634
12.26	28.894
12.48	25.396
12.7	29.159
12.92	31.015
13.14	19.842
13.36	17.013
13.58	16.714
13.8	15.465
14.02	19.382
14.24	6.842
14.46	31.76
14.68	15.861
14.9	19.853
15.12	6.825
15.34	4.165
15.56	9.722
15.78	16.699
16	35.13
16.22	28.641
16.44	17.019
16.66	29.625
16.88	22.2
17.1	20.12
17.32	14.611
17.54	15.285
17.76	12.804
17.98	21.37
18.2	13.906
18.42	14.579
18.64	26.736
18.86	0.756
19.08	28.972
19.3	15.547
19.52	36.64
19.74	37.213
19.96	16.283
20.18	2.779
20.4	33.889
20.62	15.968
20.84	21.255
21.06	29.997
21.28	25.087
21.5	20.595
21.72	0.884
21.94	3.802
22.16	30.806
22.38	9.292
22.6	1.326
22.82	18.231
23.04	5.731
23.26	9.44
23.48	23.87
23.7	4.109
23.92	44.83
24.14	11.586
24.36	28.549
24.58	32.709
24.8	10.454
25.02	24.687
25.24	0.909
25.46	9.683
25.68	33.879
25.9	21.376
26.12	45.616
26.34	10.841
26.56	42.068
26.78	32.628
27	86.179
27.22	34.804
27.44	2.434
27.66	5.147
27.88	7.371
28.1	23.45
28.32	218.508
28.54	115.498
28.76	74.622
28.98	10.833
29.2	12.866
29.42	5.479
29.64	27.525
29.86	16.543
30.08	30.948
30.3	26.083
30.52	35.359
30.74	14.137
30.96	12.033
31.18	20.169
31.4	3.325
31.62	62.612
31.84	30.97
32.06	27.699
32.28	11.987
32.5	23.565
32.72	101.854
32.94	75.433
33.16	6.895
33.38	18.795
33.6	8.276
33.82	0.767
34.04	3.938
34.26	92.082
34.48	35.015
34.7	8.411
34.92	29.261
35.14	12.753
35.36	52.159
35.58	6.949
35.8	37.223
36.02	27.616
36.24	3.626
36.46	9.166
36.68	12.367
36.9	20.364
37.12	25.143
37.34	15.339
37.56	22.823
37.78	22.017
38	19.129
38.22	33.176
38.44	34.894
38.66	19.681
38.88	41.161
39.1	3.995
39.32	26.746
39.54	42.184
39.76	30.704
39.98	21.48
40.2	16.699
40.42	11.921
40.64	7.298
40.86	9.491
41.08	23.578
41.3	56
41.52	21.734
41.74	6.964
41.96	31.664
42.18	11.552
42.4	24.631
42.62	17.536
42.84	18.398
43.06	16.804
43.28	16.582
43.5	11.385
43.72	44.934
43.94	28.625
44.16	32.08
44.38	34.635
44.6	37.759
44.82	0.244
45.04	27.093
45.26	19.159
45.48	29.034
45.7	0.529
45.92	5.814
46.14	32.231
46.36	4.907
46.58	26.959
46.8	12.897
47.02	14.819
47.24	0.48
47.46	21.395
47.68	18.128
47.9	15.704
48.12	18.821
48.34	31.514
48.56	2.868
48.78	21.556
49	19.527
49.22	8.547
49.44	33.555
49.66	9.316
49.88	3.622
50.1	28.66
50.32	34.699
50.54	20.241
50.76	31.876
50.98	14.283
51.2	0.749
51.42	13.879
51.64	15.483
51.86	11.73
52.08	11.994
52.3	37.678
52.52	33.883
52.74	32.019
52.96	12.725
53.18	32.097
53.4	10.408
53.62	18.071
53.84	25.798
54.06	19.204
54.28	13.939
54.5	33.533
54.72	8.529
54.94	64.705
55.16	55.644
55.38	9.705
55.6	0.506
55.82	29.11
56.04	22.432
56.26	9.033
56.48	21.984
56.7	31.795
56.92	38.587
57.14	4.866
57.36	25.142
57.58	11.583
57.8	7.474
58.02	38.382
58.24	19.281
58.46	15.422
58.68	22.343
58.9	16.636
59.12	15.651
59.34	27.784
59.56	4.529
59.78	11.46
60	10.266
60.22	5.844
60.44	6.092
60.66	25.103
60.88	28.347
61.1	46.827
61.32	27.644
61.54	24.561
61.76	29.329
61.98	6.877
62.2	14.259
62.42	8.142
62.64	10.042
62.86	4.927
63.08	15.344
63.3	8.712
63.52	20.587
63.74	26.54
63.96	23.495
64.18	9.746
64.4	39.462
64.62	24.146
64.84	16.301
65.06	20.685
65.28	21.475
65.5	11.398
65.72	15.912
65.94	2.389
66.16	17.413
66.38	37.019
66.6	19.199
66.82	25.826
67.04	43.016
67.26	13.803
67.48	2.077
67.7	36.652
67.92	10.699
68.14	26.539
68.36	11.502
68.58	9.321
68.8	20.356
69.02	0.669
69.24	0.956
69.46	16.629
69.68	34.79
69.9	10.735
70.12	3.623
70.34	23.446
70.56	14.745
70.78	6.775
71	34.862
71.22	0.476
71.44	32.323
71.66	25.541
71.88	11.778
72.1	13.956
72.32	30.845
72.54	5.147
72.76	19.814
72.98	29.945
73.2	4.405
73.42	1.925
73.64	35.402
73.86	8.279
74.08	5.847
74.3	5.124
74.52	4.11
74.74	41.36
74.96	25.435
75.18	12.606
75.4	61.238
75.62	23.558
75.84	17.128
76.06	14.816
76.28	11.13
76.5	24.643
76.72	40.176
76.94	23.957
77.16	47.984
77.38	18.571
77.6	21.383
77.82	23.406
78.04	31.906
78.26	20.812
78.48	17.997
78.7	9.805
78.92	28.248
79.14	27.376
79.36	9.327
79.58	24.467
79.8	15.952
80.02	7.463
80.24	2.219
80.46	33.847
80.68	21.967
80.9	7.005
81.12	30.29
81.34	30.103
81.56	2.363
81.78	28.703
82	9.384
82.22	36.035
82.44	30.906
82.66	15.428
82.88	29.77
83.1	17.041
83.32	9.654
83.54	45.296
83.76	28.685
83.98	42.796
84.2	17.561
84.42	25.115
84.64	6.123
84.86	12.029
85.08	12.365
85.3	1.495
85.52	11.889
85.74	28.426
85.96	29.236
86.18	31.642
86.4	10.778
86.62	28.949
86.84	45.114
87.06	20.025
87.28	1.672
87.5	9.751
87.72	27.426
87.94	19.455
88.16	11.719
88.38	37.939
88.6	17.951
88.82	0.207
89.04	52.95
89.26	22.877
89.48	14.131
89.7	41.903
89.92	17.33
