Measurement: Powder, Xray Data XY Processed
Mineral: Rockbridgeite
Rruff sample: R060858
Ideal chemistry: (Fe^2+^_0.5_Fe^3+^_0.5_)_2_Fe^3+^_3_(PO_4_)_3_(OH)_5_
Locality: Tip Top mine, Custer County, South Dakota, USA
Source: Marcus Origlieri
Description: Dark reddish brown elongated prismatic crystals associated with jahnsite-(CaMnMg), R060213
Diffraction sample description: Single crystal, powder profile is calculated
Measured chemistry: (Fe^2+^_0.62_Mn^2+^_0.33_Mg_0.05_)_Î£=1_Fe^3+^_4.00_(P_1.00_O_4_)_3_(OH)_5_; OH estimated by difference; Fe2+ and Fe3+ by charge balance
Cell parameters: a: 13.975(2) b: 16.814(2) c: 5.1706(8) alpha: 90 beta: 90 gamma: 90 volume: 1214.9(4) crystal system: orthorhombic
x	intensity
5	0
5.22	0
5.44	0
5.66	0
5.88	0
6.1	0
6.32	0
6.54	0
6.76	0
6.98	0
7.2	0
7.42	0
7.64	0
7.86	0
8.08	0
8.3	0
8.52	0
8.74	0
8.96	0
9.18	0
9.4	0
9.62	0
9.84	0
10.06	0
10.28	0
10.5	3.909
10.72	0
10.94	0
11.16	0
11.38	0
11.6	0
11.82	0
12.04	0
12.26	0
12.48	0
12.7	0
12.92	2.646
13.14	0
13.36	0
13.58	0
13.8	0.017
14.02	0
14.24	0
14.46	0
14.68	0
14.9	0
15.12	0
15.34	0
15.56	0
15.78	0
16	0
16.22	0
16.44	0
16.66	0.788
16.88	0
17.1	0
17.32	0
17.54	0
17.76	0
17.98	0
18.2	0.024
18.42	0.749
18.64	0
18.86	0
19.08	17.555
19.3	0
19.52	0
19.74	0
19.96	0
20.18	0
20.4	5.659
20.62	0
20.84	0
21.06	0.55
21.28	0.057
21.5	0
21.72	0
21.94	0
22.16	0
22.38	0
22.6	0
22.82	0
23.04	0
23.26	0
23.48	0
23.7	0
23.92	0
24.14	0
24.36	4.545
24.58	0
24.8	33.246
25.02	0
25.24	0
25.46	0
25.68	0
25.9	31.041
26.12	0
26.34	16.709
26.56	10.083
26.78	0
27	0
27.22	0
27.44	0
27.66	0
27.88	0.053
28.1	74.078
28.32	0
28.54	0
28.76	0
28.98	0
29.2	0
29.42	0.003
29.64	6.253
29.86	0
30.08	0
30.3	0
30.52	4.824
30.74	0
30.96	0
31.18	0
31.4	0
31.62	0
31.84	0.155
32.06	0.856
32.28	0.016
32.5	9.922
32.72	0
32.94	0
33.16	0
33.38	0
33.6	6.641
33.82	0.114
34.04	0
34.26	0
34.48	0.054
34.7	10.394
34.92	0
35.14	0
35.36	0
35.58	0
35.8	0
36.02	0
36.24	0.064
36.46	0.208
36.68	0
36.9	0.303
37.12	19.166
37.34	19.169
37.56	5.132
37.78	0
38	0
38.22	0
38.44	0.539
38.66	1.43
38.88	0.002
39.1	0
39.32	0
39.54	0.285
39.76	5.61
39.98	0
40.2	0
40.42	0.242
40.64	2.041
40.86	0.157
41.08	0.697
41.3	0
41.52	2.908
41.74	0.811
41.96	8.831
42.18	0.042
42.4	0.009
42.62	0.402
42.84	0.278
43.06	6.796
43.28	0.061
43.5	0
43.72	2.169
43.94	0.02
44.16	3.896
44.38	0
44.6	0
44.82	0.01
45.04	2.785
45.26	0.104
45.48	0
45.7	0
45.92	0.007
46.14	13.905
46.36	1.435
46.58	0
46.8	3.765
47.02	0.047
47.24	2.078
47.46	0
47.68	0
47.9	3.371
48.12	0.205
48.34	0
48.56	0
48.78	0
49	0.075
49.22	0.077
49.44	1.005
49.66	2.69
49.88	6.682
50.1	0
50.32	0
50.54	0.04
50.76	3.181
50.98	1.66
51.2	0
51.42	0.268
51.64	0.002
51.86	0.523
52.08	0.021
52.3	0.609
52.52	0.049
52.74	0
52.96	0
53.18	0.858
53.4	1.51
53.62	7.037
53.84	1.04
54.06	0.007
54.28	1.976
54.5	13.599
54.72	3.431
54.94	0.015
55.16	0.161
55.38	0.012
55.6	0
55.82	0.131
56.04	1.369
56.26	0.231
56.48	0.023
56.7	0
56.92	0.074
57.14	0.833
57.36	0.563
57.58	0.002
57.8	7.09
58.02	12.792
58.24	5.145
58.46	0.004
58.68	0
58.9	2.109
59.12	0.181
59.34	0
59.56	3.399
59.78	2.083
60	0
60.22	0.016
60.44	4.553
60.66	6.374
60.88	0.315
61.1	0
61.32	2.172
61.54	1.186
61.76	0.02
61.98	0
62.2	1.264
62.42	0.194
62.64	1.038
62.86	1.939
63.08	0.766
63.3	0.4
63.52	3.355
63.74	2.625
63.96	2.451
64.18	0.492
64.4	1.274
64.62	0.253
64.84	0.304
65.06	0.302
65.28	0.013
65.5	0
65.72	0.708
65.94	0.104
66.16	0.114
66.38	0.022
66.6	0
66.82	0.705
67.04	1.38
67.26	0.222
67.48	1.539
67.7	2.366
67.92	0.668
68.14	0.097
68.36	0.593
68.58	0.055
68.8	0
69.02	0.096
69.24	0.205
69.46	0.028
69.68	0
69.9	1.664
70.12	0.499
70.34	0.208
70.56	0.026
70.78	0.388
71	0.952
71.22	0.328
71.44	0.091
71.66	0.063
71.88	0.003
72.1	0.044
72.32	0.087
72.54	0.081
72.76	0.153
72.98	1.245
73.2	2.415
73.42	0.661
73.64	0
73.86	0.388
74.08	0.267
74.3	0.371
74.52	0.306
74.74	0.075
74.96	0.058
75.18	0.033
75.4	0.003
75.62	0.009
75.84	1.491
76.06	0.697
76.28	0.167
76.5	0.099
76.72	4.116
76.94	1.947
77.16	0.275
77.38	0.524
77.6	0.152
77.82	0.01
78.04	0
78.26	0.025
78.48	0.55
78.7	0.347
78.92	0.878
79.14	0.787
79.36	0.457
79.58	1.05
79.8	0.541
80.02	0.339
80.24	0.47
80.46	0.205
80.68	0.046
80.9	0.028
81.12	1.179
81.34	0.316
81.56	0.042
81.78	0
82	0.78
82.22	0.236
82.44	0.459
82.66	0.182
82.88	0.31
83.1	0.181
83.32	0.248
83.54	0.368
83.76	0.129
83.98	0.605
84.2	0.718
84.42	0.846
84.64	2.425
84.86	0.988
85.08	1.768
85.3	0.541
85.52	0.683
85.74	0.153
85.96	0.038
86.18	0.033
86.4	0.267
86.62	0.907
86.84	0.387
87.06	0.067
87.28	0.166
87.5	0.249
87.72	0.039
87.94	0.83
88.16	0.249
88.38	1.019
88.6	0.794
88.82	0.458
89.04	0.108
89.26	0.542
89.48	0.036
89.7	0.07
89.92	0.011
