Measurement: Powder, Xray Data XY Processed
Mineral: Roeblingite
Rruff sample: R070713
Ideal chemistry: Pb^2+^_2_Ca_6_Mn^2+^(Si_3_O_9_)_2_(S^6+^O_4_)_2_(OH)_2_4H_2_O
Locality: Parker Shaft, Franklin mine, Franklin, Franklin Mining District, Sussex County, New Jersey, USA
Source: Michael Scott
Description: Milky white massive fragment
Diffraction sample description: Powder
Cell parameters: a: 13.259(2) b: 8.310(1) c: 13.099(2) alpha: 90 beta: 105.39(2) gamma: 90 volume: 1391.6(2) crystal system: monoclinic
x	intensity
5	0
5.22	16.9482
5.44	8.43169
5.66	23.9494
5.88	16.056
6.1	20.6159
6.32	4.38149
6.54	18.6025
6.76	18.378
6.98	12.6421
7.2	21.3065
7.42	0.037909
7.64	15.466
7.86	12.3093
8.08	4.703
8.3	5.18741
8.52	3.66086
8.74	6.85128
8.96	9.43388
9.18	7.19354
9.4	8.47813
9.62	8.71608
9.84	15.4997
10.06	5.74979
10.28	20.9218
10.5	11.3172
10.72	9.84055
10.94	6.30933
11.16	10.7958
11.38	10.974
11.6	12.2494
11.82	6.3784
12.04	1.29221
12.26	11.4622
12.48	7.40397
12.7	84.0022
12.92	8.84007
13.14	9.65704
13.36	34.2251
13.58	141.085
13.8	88.795
14.02	52.9802
14.24	15.7274
14.46	15.32
14.68	10.0913
14.9	10.7598
15.12	12.8627
15.34	0.393511
15.56	4.22527
15.78	1.5941
16	3.94556
16.22	17.1401
16.44	3.85617
16.66	19.6746
16.88	33.3619
17.1	45.7837
17.32	13.0855
17.54	1.06362
17.76	9.09782
17.98	6.19604
18.2	5.32712
18.42	0.285835
18.64	8.48704
18.86	9.38706
19.08	7.0535
19.3	19.0231
19.52	12.5632
19.74	9.33252
19.96	6.63093
20.18	7.79119
20.4	5.29989
20.62	18.5442
20.84	4.00516
21.06	33.388
21.28	25.0976
21.5	19.1837
21.72	2.0744
21.94	20.9749
22.16	13.4703
22.38	36.0892
22.6	36.0459
22.82	31.8273
23.04	15.9639
23.26	11.5097
23.48	29.1346
23.7	1.98591
23.92	19.0002
24.14	11.4731
24.36	34.4303
24.58	12.2268
24.8	1.99637
25.02	11.2576
25.24	3.78652
25.46	39.2109
25.68	7.66236
25.9	25.9954
26.12	37.6258
26.34	22.9776
26.56	4.78428
26.78	10.0497
27	11.3127
27.22	22.8174
27.44	57.495
27.66	124.584
27.88	47.8363
28.1	26.1515
28.32	24.0045
28.54	1.13891
28.76	12.2211
28.98	15.4451
29.2	49.7656
29.42	29.3098
29.64	21.8965
29.86	11.5484
30.08	56.9108
30.3	74.119
30.52	45.2041
30.74	53.4298
30.96	32.1897
31.18	24.7677
31.4	17.9008
31.62	7.80769
31.84	2.43376
32.06	8.60773
32.28	5.99414
32.5	18.3267
32.72	18.3422
32.94	3.63596
33.16	10.947
33.38	16.0949
33.6	14.8731
33.82	7.65173
34.04	9.34181
34.26	14.0338
34.48	15.24
34.7	15
34.92	9.86566
35.14	21.4146
35.36	37.3646
35.58	32.3967
35.8	9.55909
36.02	2.2021
36.24	16.4704
36.46	1.85415
36.68	26.2789
36.9	13.762
37.12	4.44802
37.34	2.59434
37.56	22.2921
37.78	34.799
38	11.3294
38.22	6.82066
38.44	2.74418
38.66	8.95059
38.88	7.70791
39.1	14.4355
39.32	15.2248
39.54	11.7554
39.76	2.58926
39.98	10.5953
40.2	13.8284
40.42	18.1161
40.64	16.5478
40.86	20.6675
41.08	23.6582
41.3	15.9265
41.52	13.9127
41.74	15.6615
41.96	6.51878
42.18	1.57497
42.4	12.3723
42.62	29.4974
42.84	20.7982
43.06	11.1492
43.28	8.59479
43.5	48.2906
43.72	4.07894
43.94	1.23905
44.16	8.90752
44.38	7.83791
44.6	2.654
44.82	15.3355
45.04	13.2935
45.26	10.1678
45.48	11.5618
45.7	13.0882
45.92	15.4099
46.14	10.6208
46.36	2.04831
46.58	11.7594
46.8	24.1025
47.02	32.688
47.24	18.2109
47.46	17.5529
47.68	23.5875
47.9	29.9951
48.12	15.6097
48.34	3.22208
48.56	4.68152
48.78	20.3084
49	11.0226
49.22	13.9409
49.44	12.8524
49.66	6.86238
49.88	18.1218
50.1	5.49289
50.32	9.05662
50.54	0.014061
50.76	10.282
50.98	2.81938
51.2	7.97374
51.42	2.97435
51.64	7.76096
51.86	13.264
52.08	6.85261
52.3	5.50177
52.52	2.97728
52.74	2.38606
52.96	8.20683
53.18	15.6582
53.4	2.14397
53.62	3.78595
53.84	5.47049
54.06	19.4523
54.28	11.0844
54.5	2.8535
54.72	19.5189
54.94	6.66185
55.16	6.15183
55.38	6.61136
55.6	16.9303
55.82	4.15298
56.04	20.0439
56.26	2.71722
56.48	10.2752
56.7	0.055628
56.92	12.2884
57.14	4.46651
57.36	7.23214
57.58	19.4175
57.8	14.6082
58.02	15.3249
58.24	8.40146
58.46	15.493
58.68	5.56317
58.9	16.7489
59.12	15.5454
59.34	10.1017
59.56	8.49648
59.78	7.04498
60	2.16433
60.22	9.50125
60.44	9.69392
60.66	2.81856
60.88	15.3919
61.1	6.55047
61.32	9.65302
61.54	7.79721
61.76	9.44096
61.98	0.069733
62.2	10.9678
62.42	2.61182
62.64	11.5035
62.86	2.47781
63.08	8.52293
63.3	14.2141
63.52	3.39424
63.74	15.7003
63.96	20.7283
64.18	6.43371
64.4	5.1077
64.62	6.25854
64.84	10.8108
65.06	6.15902
65.28	5.38187
65.5	1.50541
65.72	8.66354
65.94	1.25138
66.16	7.69464
66.38	8.75496
66.6	2.79715
66.82	9.86421
67.04	7.70028
67.26	10.8405
67.48	17.7359
67.7	10.7439
67.92	0.875248
68.14	3.28581
68.36	12.332
68.58	3.38913
68.8	7.81632
69.02	1.94905
69.24	0.039654
69.46	17.3298
69.68	4.19104
69.9	5.23134
70.12	14.3517
70.34	6.50868
70.56	8.51716
70.78	0.045116
71	10.0459
71.22	6.91965
71.44	16.1953
71.66	0.729568
71.88	1.41993
72.1	6.53999
72.32	2.53758
72.54	0.844078
72.76	4.76665
72.98	16.0012
73.2	15.906
73.42	8.83243
73.64	12.045
73.86	3.1428
74.08	15.0889
74.3	6.95047
74.52	11.0236
74.74	11.8112
74.96	1.73275
75.18	15.299
75.4	1.37542
75.62	7.3333
75.84	4.34878
76.06	7.33269
76.28	2.47031
76.5	3.73503
76.72	2.95176
76.94	13.114
77.16	18.594
77.38	15.0282
77.6	1.30993
77.82	8.51126
78.04	10.8089
78.26	11.9747
78.48	0.120509
78.7	19.03
78.92	16.5831
79.14	9.95935
79.36	12.8839
79.58	0.582213
79.8	0.358356
80.02	5.92115
80.24	0.692714
80.46	10.0687
80.68	5.99622
80.9	5.93022
81.12	10.1148
81.34	11.2739
81.56	7.17882
81.78	11.8385
82	2.24235
82.22	5.14173
82.44	16.2214
82.66	5.38597
82.88	2.06493
83.1	0.16236
83.32	8.01692
83.54	6.96273
83.76	14.8348
83.98	7.88347
84.2	1.89146
84.42	2.78217
84.64	4.80911
84.86	1.76
85.08	3.83185
85.3	6.8752
85.52	15.8257
85.74	0.141341
85.96	3.70933
86.18	4.69353
86.4	4.81301
86.62	0.790075
86.84	9.79151
87.06	5.70415
87.28	1.29312
87.5	6.60467
87.72	9.77746
87.94	11.7884
88.16	5.86918
88.38	0.950089
88.6	8.84826
88.82	4.92405
89.04	7.87171
89.26	16.1761
89.48	15.4596
89.7	0.50775
89.92	9.96601
