Measurement: Powder, Xray Data XY Processed
Mineral: Romerite
Rruff sample: R060820
Ideal chemistry: Fe^2+^Fe^3+^_2_(S^6+^O_4_)_4_14H_2_O
Locality: Alcaparrosa mine, Tierra Amarilla, Chile
Source: Bob Jenkins
Description: Reddish-brown isolated grains associated with copiapite, R060821
Diffraction sample description: Single crystal, powder profile is calculated
Cell parameters: a: 6.4530(9) b: 15.277(3) c: 6.326(1) alpha: 89.901(8) beta: 100.915(8) gamma: 85.876(9) volume: 610.7(1) crystal system: triclinic
x	intensity
5	0
5.22	0
5.44	0
5.66	0
5.88	0.025
6.1	0
6.32	0
6.54	0
6.76	0
6.98	0
7.2	0
7.42	0
7.64	0
7.86	0
8.08	0
8.3	0
8.52	0
8.74	0
8.96	0
9.18	0
9.4	0
9.62	0
9.84	0
10.06	0
10.28	0
10.5	0
10.72	0
10.94	0
11.16	0
11.38	0
11.6	10.109
11.82	0
12.04	0
12.26	0
12.48	0
12.7	0
12.92	0
13.14	0
13.36	0
13.58	0
13.8	0
14.02	7.93
14.24	0.395
14.46	0
14.68	0.247
14.9	0
15.12	0
15.34	4.406
15.56	3.61
15.78	0
16	0
16.22	0
16.44	0
16.66	0
16.88	0
17.1	0
17.32	0.096
17.54	38.505
17.76	0
17.98	8.852
18.2	0
18.42	92.351
18.64	4.641
18.86	5.008
19.08	0.003
19.3	0.031
19.52	0
19.74	0
19.96	0
20.18	0
20.4	0
20.62	0
20.84	5.01
21.06	0.001
21.28	0
21.5	0.956
21.72	0.029
21.94	61.528
22.16	0
22.38	20.244
22.6	1.473
22.82	0.005
23.04	0.041
23.26	1.654
23.48	0
23.7	0
23.92	0
24.14	0.001
24.36	3.966
24.58	0.009
24.8	0
25.02	0
25.24	0.007
25.46	0.036
25.68	0.001
25.9	0.139
26.12	0
26.34	3.625
26.56	0
26.78	0
27	0
27.22	0.005
27.44	5.439
27.66	0
27.88	0
28.1	1.961
28.32	2.628
28.54	0.019
28.76	5.335
28.98	0.005
29.2	4.224
29.42	7.832
29.64	0.012
29.86	1.149
30.08	0.006
30.3	6.769
30.52	0.03
30.74	0.364
30.96	0.849
31.18	2.404
31.4	2.173
31.62	2.202
31.84	0
32.06	2.791
32.28	0.206
32.5	0.143
32.72	2.134
32.94	1.857
33.16	0.151
33.38	0.001
33.6	1.617
33.82	0.416
34.04	2.737
34.26	7.484
34.48	0.23
34.7	0.864
34.92	0.127
35.14	3.359
35.36	3.076
35.58	1.804
35.8	0.01
36.02	0.016
36.24	1.083
36.46	0.017
36.68	0.133
36.9	1.468
37.12	0.4
37.34	4.33
37.56	0.524
37.78	1.302
38	0.014
38.22	3
38.44	0.173
38.66	0
38.88	1.05
39.1	0.042
39.32	0.001
39.54	0.35
39.76	0.219
39.98	0
40.2	0.021
40.42	0.073
40.64	0.051
40.86	2.652
41.08	0
41.3	2.245
41.52	0.094
41.74	0
41.96	0
42.18	0
42.4	0.018
42.62	2.049
42.84	2.634
43.06	0.27
43.28	0.809
43.5	0.55
43.72	0.969
43.94	0.379
44.16	0.075
44.38	0.001
44.6	2.099
44.82	0.662
45.04	1.958
45.26	2.307
45.48	1.158
45.7	0.012
45.92	5.44
46.14	0.407
46.36	0.302
46.58	0.237
46.8	0.153
47.02	0.175
47.24	1.395
47.46	1.588
47.68	3.334
47.9	2.855
48.12	1.693
48.34	0.669
48.56	0.602
48.78	1.935
49	0.107
49.22	1.992
49.44	0.3
49.66	0.93
49.88	2.342
50.1	2.342
50.32	2.781
50.54	0.951
50.76	1.022
50.98	0.252
51.2	0.56
51.42	0.216
51.64	0.626
51.86	1.935
52.08	0.004
52.3	0.917
52.52	2.67
52.74	0.81
52.96	0.746
53.18	1.024
53.4	0.025
53.62	0.36
53.84	0.03
54.06	0.434
54.28	0.191
54.5	1.238
54.72	0.258
54.94	0.207
55.16	0.023
55.38	1.348
55.6	0.158
55.82	0.67
56.04	0.174
56.26	0.427
56.48	1.04
56.7	0.482
56.92	0.004
57.14	0.796
57.36	1.069
57.58	0.082
57.8	0.592
58.02	0.688
58.24	2.654
58.46	0.572
58.68	0.856
58.9	0.998
59.12	1.274
59.34	1.073
59.56	0.994
59.78	1.031
60	0.145
60.22	0.132
60.44	0.732
60.66	2.815
60.88	0.594
61.1	0.289
61.32	0.235
61.54	1.123
61.76	0.618
61.98	1.348
62.2	0.934
62.42	0.42
62.64	1.765
62.86	0.999
63.08	0.267
63.3	1.088
63.52	0.611
63.74	0.418
63.96	0.3
64.18	0.869
64.4	0.368
64.62	1.009
64.84	1.151
65.06	0.42
65.28	0.399
65.5	1.458
65.72	0.348
65.94	0.298
66.16	0.049
66.38	0.194
66.6	0.111
66.82	0.069
67.04	0.529
67.26	0.525
67.48	0.252
67.7	0.266
67.92	0.258
68.14	0.169
68.36	0.27
68.58	1.305
68.8	0.888
69.02	0.261
69.24	0.736
69.46	1.735
69.68	0.582
69.9	0.25
70.12	0.116
70.34	0.1
70.56	0.13
70.78	0.18
71	0.069
71.22	0.021
71.44	0.043
71.66	0.52
71.88	0.28
72.1	0.051
72.32	0.048
72.54	0.029
72.76	0.271
72.98	0.11
73.2	0.111
73.42	0.154
73.64	0.215
73.86	0.218
74.08	0.322
74.3	0.291
74.52	0.966
74.74	0.546
74.96	0.158
75.18	0.25
75.4	0.17
75.62	0.103
75.84	0.169
76.06	0.71
76.28	0.624
76.5	0.281
76.72	0.263
76.94	0.292
77.16	0.204
77.38	0.201
77.6	0.45
77.82	0.198
78.04	0.033
78.26	0.18
78.48	0.436
78.7	0.51
78.92	0.311
79.14	0.149
79.36	0.08
79.58	0.271
79.8	0.868
80.02	0.431
80.24	0.291
80.46	0.127
80.68	0.096
80.9	0.136
81.12	0.196
81.34	0.186
81.56	0.204
81.78	0.5
82	0.888
82.22	0.553
82.44	0.267
82.66	0.08
82.88	0.029
83.1	0.037
83.32	0.019
83.54	0.332
83.76	0.263
83.98	0.251
84.2	0.1
84.42	0.166
84.64	0.202
84.86	0.165
85.08	0.446
85.3	0.134
85.52	0.178
85.74	0.084
85.96	0.064
86.18	0.177
86.4	0.178
86.62	0.058
86.84	0.293
87.06	0.112
87.28	0.158
87.5	0.03
87.72	0.075
87.94	0.026
88.16	0.198
88.38	0.013
88.6	0.29
88.82	0.146
89.04	0.111
89.26	0.177
89.48	0.132
89.7	0.111
89.92	0.359
