Measurement: Powder, Xray Data XY Processed
Mineral: Rosasite
Rruff sample: R050294
Ideal chemistry: Cu^2+^Zn^2+^CO_3_(OH)_2_
Locality: 79 mine, 4th level, Hayden, Gila County, Arizona, USA
Source: George Godas, John Callahan
Description: Green botryoidal crust associated with intergrown smithsonite
Diffraction sample description: Powder, intimately mixed with smithsonite
Measured chemistry: (Cu_1.24_Zn_0.76_)_Î£=2_(CO_3_)(OH)_2_
Cell parameters: a: 12.864(2) b: 9.355(1) c: 3.1589(5) alpha: 90 beta: 110.04(2) gamma: 90 volume: 357.15(6) crystal system: monoclinic
x	intensity
5	0
5.22	13.4983
5.44	9.04055
5.66	14.6713
5.88	13.5574
6.1	2.57192
6.32	10.2079
6.54	11.3813
6.76	11.837
6.98	26.1833
7.2	0.081104
7.42	22.3702
7.64	7.9364
7.86	11.7668
8.08	15.4104
8.3	15.9701
8.52	4.90025
8.74	16.5109
8.96	10.255
9.18	1.54897
9.4	18.2776
9.62	17.0073
9.84	17.5446
10.06	24.8243
10.28	5.43029
10.5	15.4897
10.72	10.0391
10.94	12.2226
11.16	13.4675
11.38	17.4386
11.6	9.92622
11.82	8.45478
12.04	23.0268
12.26	22.4921
12.48	9.06005
12.7	25.3748
12.92	14.47
13.14	14.116
13.36	11.7472
13.58	15.6975
13.8	15.9871
14.02	14.2904
14.24	14.4822
14.46	18.6735
14.68	478.663
14.9	17.7386
15.12	13.4117
15.34	13.6275
15.56	23.4846
15.78	27.8881
16	15.7639
16.22	17.5337
16.44	4.25294
16.66	19.3572
16.88	4.90065
17.1	8.40509
17.32	67.8573
17.54	242.169
17.76	34.3475
17.98	11.3733
18.2	23.9209
18.42	3.73511
18.64	12.0595
18.86	14.7685
19.08	14.9461
19.3	18.8827
19.52	11.3726
19.74	0.225548
19.96	17.5973
20.18	13.4974
20.4	28.7147
20.62	22.5518
20.84	13.6287
21.06	0.667484
21.28	25.3957
21.5	14.4819
21.72	35.755
21.94	21.5467
22.16	19.6642
22.38	21.5766
22.6	15.1208
22.82	0.435982
23.04	17.7422
23.26	12.846
23.48	19.4794
23.7	13.9391
23.92	93.7756
24.14	279.4
24.36	7.53516
24.58	3.13176
24.8	28.7949
25.02	117.192
25.24	25.0723
25.46	17.6788
25.68	7.49069
25.9	15.7506
26.12	0.16354
26.34	13.6252
26.56	10.9357
26.78	0.713512
27	24.9537
27.22	16.4497
27.44	13.4781
27.66	11.6024
27.88	20.0764
28.1	5.71925
28.32	6.87209
28.54	11.9537
28.76	14.1004
28.98	9.26426
29.2	7.83559
29.42	53.2962
29.64	137.332
29.86	14.2008
30.08	90.54
30.3	84.3189
30.52	14.86
30.74	3.34559
30.96	25.568
31.18	53.5735
31.4	2.32793
31.62	13.829
31.84	39.4526
32.06	19.3978
32.28	103.055
32.5	230.786
32.72	51.2059
32.94	6.03523
33.16	17.5654
33.38	20.1228
33.6	15.595
33.82	5.81325
34.04	7.47779
34.26	61.8928
34.48	224.995
34.7	144.555
34.92	8.83308
35.14	1.15662
35.36	319.7
35.58	7.12103
35.8	80.7019
36.02	60.4416
36.24	8.26118
36.46	58.5365
36.68	18.2163
36.9	12.7106
37.12	8.74561
37.34	4.22765
37.56	13.4932
37.78	18.3547
38	21.3137
38.22	69.2508
38.44	142.433
38.66	77.9505
38.88	31.513
39.1	20.7167
39.32	12.3472
39.54	16.027
39.76	10.4521
39.98	7.55314
40.2	17.4491
40.42	4.22845
40.64	4.32264
40.86	38.1509
41.08	4.91191
41.3	38.0532
41.52	29.5165
41.74	15.3084
41.96	81.4583
42.18	97.143
42.4	19.9318
42.62	6.36845
42.84	58.0318
43.06	5.22049
43.28	17.4561
43.5	12.9996
43.72	11.2417
43.94	2.81297
44.16	0.65432
44.38	8.23692
44.6	16.5851
44.82	42.2252
45.04	64.2749
45.26	16.0417
45.48	16.1781
45.7	21.0785
45.92	44.2188
46.14	48.1532
46.36	4.8804
46.58	16.6156
46.8	9.88125
47.02	4.37893
47.24	16.8858
47.46	35.0471
47.68	40.2524
47.9	14.8881
48.12	35.017
48.34	38.3886
48.56	16.8735
48.78	14.1549
49	50.6514
49.22	49.0037
49.44	18.4624
49.66	7.04158
49.88	9.33849
50.1	0.994839
50.32	16.8612
50.54	5.4209
50.76	4.88304
50.98	29.8618
51.2	52.5289
51.42	31.0712
51.64	8.91922
51.86	14.6647
52.08	10.5154
52.3	33.0715
52.52	47.8344
52.74	13.7921
52.96	15.692
53.18	5.28008
53.4	7.93113
53.62	36.6393
53.84	127.722
54.06	54.6919
54.28	15.8889
54.5	9.20306
54.72	9.18698
54.94	10.8819
55.16	25.5787
55.38	35.3724
55.6	29.8903
55.82	7.27287
56.04	22.605
56.26	22.4228
56.48	11.6598
56.7	10.389
56.92	19.8055
57.14	1.63401
57.36	2.33017
57.58	21.1145
57.8	22.3757
58.02	24.8702
58.24	17.4351
58.46	8.68726
58.68	36.6731
58.9	23.7242
59.12	10.2739
59.34	10.059
59.56	16.0881
59.78	11.6946
60	13.7384
60.22	29.4427
60.44	24.7226
60.66	2.10838
60.88	23.2237
61.1	37.0096
61.32	47.8145
61.54	11.7059
61.76	16.6548
61.98	10.9268
62.2	4.91271
62.42	18.4075
62.64	39.916
62.86	42.8174
63.08	19.4746
63.3	11.3863
63.52	27.1909
63.74	14.8599
63.96	14.5887
64.18	43.3071
64.4	13.4292
64.62	20.4442
64.84	46.4636
65.06	17.7854
65.28	11.5446
65.5	6.96411
65.72	31.5571
65.94	7.81914
66.16	21.6699
66.38	17.661
66.6	27.6997
66.82	5.68295
67.04	34.5332
67.26	10.8952
67.48	22.1009
67.7	14.7604
67.92	17.334
68.14	31.8463
68.36	33.9481
68.58	17.6917
68.8	19.5364
69.02	2.3261
69.24	34.6099
69.46	1.71127
69.68	11.4075
69.9	13.5801
70.12	11.5427
70.34	11.6695
70.56	12.6285
70.78	4.33698
71	22.5308
71.22	15.5514
71.44	13.6041
71.66	6.08567
71.88	0.75338
72.1	13.813
72.32	19.8117
72.54	1.22041
72.76	20.0497
72.98	18.4297
73.2	26.9114
73.42	11.7692
73.64	23.2723
73.86	9.76677
74.08	1.61975
74.3	18.7179
74.52	9.18302
74.74	19.6252
74.96	21.1743
75.18	16.3805
75.4	13.6065
75.62	4.41122
75.84	12.9058
76.06	5.93027
76.28	7.78803
76.5	14.5832
76.72	4.97345
76.94	11.8765
77.16	2.23959
77.38	11.5905
77.6	21.8232
77.82	5.15752
78.04	12.7022
78.26	18.9221
78.48	10.1907
78.7	6.57651
78.92	11.8846
79.14	5.15973
79.36	25.3607
79.58	11.1004
79.8	8.83952
80.02	7.19006
80.24	16.5734
80.46	10.7919
80.68	8.94515
80.9	13.4992
81.12	17.18
81.34	13.7024
81.56	10.5216
81.78	5.71239
82	14.5694
82.22	10.0729
82.44	0.08469
82.66	2.05243
82.88	8.32117
83.1	15.1023
83.32	18.8885
83.54	9.21626
83.76	23.1313
83.98	13.2436
84.2	8.56009
84.42	10.0046
84.64	21.9885
84.86	15.2519
85.08	9.42108
85.3	9.39184
85.52	7.33438
85.74	18.806
85.96	5.77482
86.18	10.7992
86.4	10.8953
86.62	8.88782
86.84	12.7498
87.06	16.9161
87.28	5.04081
87.5	6.2191
87.72	8.07357
87.94	7.60655
88.16	29.2688
88.38	13.8828
88.6	13.2743
88.82	17.0443
89.04	4.86049
89.26	7.41271
89.48	2.34975
89.7	7.62316
89.92	5.2258
