Measurement: Powder, Xray Data XY Processed
Mineral: Rossmanite
Rruff sample: R070680
Ideal chemistry: [box](LiAl_2_)Al_6_(Si_6_O_18_)(BO_3_)_3_(OH)_3_OH
Locality: Rožná pegmatite, Žďár nad Sázavou, Vysočina Region, Moravia (Mähren; Maehren), Czech Republic
Source: Michael Scott
Description: Light pink striated prismatic crystals associated with quartz
Diffraction sample description: Powder, mixed with quartz
Cell parameters: a: 15.8197(8) b: 15.8197(8) c: 7.0917(4) alpha: 90 beta: 90 gamma: 120 volume: 1537.0(1) crystal system: hexagonal
x	intensity
5	0
5.22	18.536
5.44	10.9904
5.66	20.5263
5.88	20.8164
6.1	17.7293
6.32	26.3297
6.54	11.6212
6.76	2.55021
6.98	9.62035
7.2	13.0646
7.42	6.99284
7.64	21.1162
7.86	3.78308
8.08	21.4689
8.3	19.9534
8.52	13.8756
8.74	28.476
8.96	10.09
9.18	8.78437
9.4	18.1334
9.62	14.7446
9.84	9.9004
10.06	5.26087
10.28	19.2265
10.5	9.90292
10.72	24.346
10.94	15.0253
11.16	79.5409
11.38	21.7782
11.6	31.0716
11.82	17.9965
12.04	13.424
12.26	22.3943
12.48	21.0504
12.7	20.4637
12.92	4.2394
13.14	25.8197
13.36	1.99145
13.58	5.30452
13.8	20.5155
14.02	131.906
14.24	8.09233
14.46	16.4558
14.68	4.04781
14.9	26.9852
15.12	32.2296
15.34	6.0421
15.56	14.4721
15.78	28.4129
16	20.7325
16.22	23.6721
16.44	16.8592
16.66	13.0383
16.88	8.76881
17.1	13.8585
17.32	22.6745
17.54	2.36847
17.76	25.7739
17.98	152.427
18.2	8.11692
18.42	18.1402
18.64	16.1375
18.86	2.01432
19.08	4.56184
19.3	16.4418
19.52	26.1072
19.74	13.9672
19.96	2.76795
20.18	13.1801
20.4	13.4202
20.62	11.5598
20.84	26.2722
21.06	18.6782
21.28	219.1
21.5	5.4066
21.72	4.98277
21.94	3.15732
22.16	6.32131
22.38	90.2336
22.6	43.6206
22.82	15.5491
23.04	7.77108
23.26	9.55231
23.48	5.09674
23.7	5.67118
23.92	14.8937
24.14	8.31586
24.36	9.81541
24.58	10.0666
24.8	4.46812
25.02	11.3824
25.24	4.56374
25.46	30.8845
25.68	32.0247
25.9	165.419
26.12	26.3798
26.34	9.66282
26.56	49.1038
26.78	16.591
27	8.60669
27.22	7.03445
27.44	1.15908
27.66	19.1858
27.88	21.9987
28.1	15.952
28.32	0.031265
28.54	17.1765
28.76	0.089413
28.98	33.0563
29.2	13.2759
29.42	9.49058
29.64	12.3846
29.86	76.9737
30.08	9.56602
30.3	4.77349
30.52	346.841
30.74	18.5071
30.96	16.0525
31.18	38.872
31.4	10.8287
31.62	5.69665
31.84	5.87164
32.06	12.6317
32.28	2.46826
32.5	5.81804
32.72	4.15444
32.94	21.7271
33.16	2.6371
33.38	15.5973
33.6	2.48301
33.82	1.28518
34.04	14.0405
34.26	3.81718
34.48	9.18792
34.7	19.3257
34.92	49.0577
35.14	318.108
35.36	14.5842
35.58	0.131229
35.8	7.83601
36.02	9.95493
36.24	16.192
36.46	10.2929
36.68	17.6725
36.9	18.8501
37.12	15.821
37.34	6.47957
37.56	0.939667
37.78	13.7649
38	38.2778
38.22	51.7542
38.44	19.6456
38.66	57.1001
38.88	30.9056
39.1	4.08166
39.32	26.3879
39.54	22.6056
39.76	12.7145
39.98	3.71787
40.2	9.76973
40.42	16.2221
40.64	18.6006
40.86	17.1237
41.08	18.8348
41.3	0.010128
41.52	9.90258
41.74	20.4028
41.96	15.2727
42.18	27.074
42.4	13.5055
42.62	8.57673
42.84	0.071648
43.06	48.2369
43.28	37.4113
43.5	18.518
43.72	9.0308
43.94	4.26469
44.16	6.36001
44.38	12.7856
44.6	50.2355
44.82	93.7644
45.04	14.2763
45.26	16.6452
45.48	9.80917
45.7	0.324261
45.92	11.2083
46.14	20.6808
46.36	10.4259
46.58	3.89118
46.8	2.42618
47.02	9.93697
47.24	14.2337
47.46	20.9816
47.68	17.0541
47.9	68.171
48.12	14.3045
48.34	10.6665
48.56	3.95782
48.78	4.01191
49	10.1972
49.22	19.8122
49.44	13.3711
49.66	7.6564
49.88	0.016212
50.1	16.0029
50.32	13.8292
50.54	2.23856
50.76	5.14907
50.98	1.62288
51.2	5.01603
51.42	14.1117
51.64	9.80859
51.86	24.7033
52.08	13.9337
52.3	5.25994
52.52	28.2968
52.74	11.0216
52.96	10.9813
53.18	17.2933
53.4	7.72907
53.62	9.18028
53.84	12.3537
54.06	4.26706
54.28	2.11993
54.5	12.9765
54.72	12.6979
54.94	0.54104
55.16	5.59669
55.38	4.39499
55.6	2.92094
55.82	15.7639
56.04	22.5595
56.26	15.3079
56.48	29.351
56.7	10.0911
56.92	5.31313
57.14	5.85288
57.36	17.9837
57.58	13.0213
57.8	4.70913
58.02	10.2585
58.24	20.511
58.46	22.8989
58.68	10.4917
58.9	2.69058
59.12	16.1406
59.34	4.15986
59.56	12.641
59.78	4.96464
60	13.9685
60.22	11.6664
60.44	12.3391
60.66	3.17408
60.88	14.13
61.1	12.7601
61.32	8.75101
61.54	15.7211
61.76	14.5119
61.98	13.2835
62.2	10.4588
62.42	18.7336
62.64	12.7961
62.86	6.72673
63.08	8.16238
63.3	4.84234
63.52	20.9574
63.74	18.0374
63.96	5.65888
64.18	3.20131
64.4	6.82919
64.62	8.431
64.84	23.2926
65.06	6.83814
65.28	2.39502
65.5	3.17688
65.72	9.59494
65.94	4.38407
66.16	11.2046
66.38	25.1533
66.6	5.58981
66.82	5.02871
67.04	11.2167
67.26	18.4888
67.48	9.905
67.7	2.43604
67.92	13.0142
68.14	7.81111
68.36	9.33178
68.58	10.0086
68.8	8.31495
69.02	14.9581
69.24	16.3137
69.46	2.49433
69.68	6.51488
69.9	6.58917
70.12	19.8966
70.34	9.89871
70.56	8.73208
70.78	9.59708
71	2.76432
71.22	8.3881
71.44	3.32088
71.66	7.90932
71.88	11.7641
72.1	9.63251
72.32	5.19119
72.54	15.3646
72.76	19.0329
72.98	20.2595
73.2	13.5298
73.42	9.72278
73.64	4.33006
73.86	9.4168
74.08	10.5461
74.3	9.62503
74.52	0.704439
74.74	1.29935
74.96	4.12749
75.18	12.2717
75.4	25.0548
75.62	10.3517
75.84	0.442089
76.06	13.538
76.28	7.68885
76.5	6.7842
76.72	7.90889
76.94	4.18176
77.16	15.8251
77.38	3.70202
77.6	2.81214
77.82	5.28804
78.04	5.99948
78.26	5.29338
78.48	0.518644
78.7	3.59216
78.92	13.8786
79.14	7.03751
79.36	11.9428
79.58	4.91649
79.8	12.8058
80.02	3.84279
80.24	11.6384
80.46	1.04456
80.68	6.03056
80.9	8.00284
81.12	3.24492
81.34	6.12042
81.56	8.13273
81.78	6.53728
82	11.5818
82.22	14.7606
82.44	13.1238
82.66	4.12166
82.88	9.94914
83.1	8.72141
83.32	7.65097
83.54	4.39017
83.76	13.5366
83.98	3.18264
84.2	9.88847
84.42	9.77445
84.64	19.1267
84.86	5.78287
85.08	8.5852
85.3	11.6453
85.52	12.872
85.74	7.10946
85.96	2.62958
86.18	15.229
86.4	15.4486
86.62	9.72224
86.84	8.04769
87.06	16.979
87.28	6.89577
87.5	10.9595
87.72	10.0754
87.94	8.13533
88.16	10.049
88.38	5.02999
88.6	1.0955
88.82	12.2272
89.04	11.1387
89.26	10.0138
89.48	3.89805
89.7	6.83444
89.92	11.1428
