Measurement: Powder, Xray Data XY Processed
Mineral: Rossmanite
Rruff sample: R070702
Ideal chemistry: [box](LiAl_2_)Al_6_(Si_6_O_18_)(BO_3_)_3_(OH)_3_OH
Locality: Tanco Mine (Bernic Lake Mine), Bernic Lake, Lac-du-Bonnet area, Manitoba, Canada
Source: Michael Scott
Description: Light pink prismatic crystals associated with pollucite
Diffraction sample description: Powder
Cell parameters: a: 15.8226(2) b: 15.8226(2) c: 7.0938(1) alpha: 90 beta: 90 gamma: 120 volume: 1538.04(4) crystal system: hexagonal
x	intensity
5	0
5.22	14.5975
5.44	10.2567
5.66	3.89668
5.88	4.86186
6.1	17.2163
6.32	10.8262
6.54	11.1399
6.76	15.0154
6.98	5.27871
7.2	14.7311
7.42	15.2172
7.64	18.8956
7.86	16.2351
8.08	16.2223
8.3	11.6048
8.52	2.54494
8.74	7.85199
8.96	2.61761
9.18	3.39406
9.4	9.15149
9.62	8.5256
9.84	20.3997
10.06	12.7655
10.28	6.65661
10.5	3.92571
10.72	3.05709
10.94	7.89067
11.16	61.1992
11.38	8.2159
11.6	10.9147
11.82	5.21209
12.04	6.02044
12.26	2.43445
12.48	6.05366
12.7	24.3324
12.92	4.39846
13.14	4.27492
13.36	4.35568
13.58	15.9826
13.8	0.605148
14.02	150.325
14.24	10.8742
14.46	10.8128
14.68	6.6601
14.9	10.9606
15.12	3.42783
15.34	8.67302
15.56	0.019276
15.78	6.62002
16	6.14022
16.22	15.9037
16.44	19.8812
16.66	12.1286
16.88	12.061
17.1	15.686
17.32	5.63954
17.54	2.2109
17.76	11.0741
17.98	187.767
18.2	22.6823
18.42	7.30576
18.64	9.70439
18.86	4.10539
19.08	3.25456
19.3	14.737
19.52	10.1409
19.74	8.24826
19.96	13.1274
20.18	10.313
20.4	3.80524
20.62	7.30341
20.84	2.47507
21.06	8.66562
21.28	325.231
21.5	12.2699
21.72	3.7482
21.94	4.53889
22.16	7.85991
22.38	50.4723
22.6	41.2204
22.82	12.2861
23.04	3.4783
23.26	6.68715
23.48	0.654667
23.7	8.86796
23.92	11.0031
24.14	6.29146
24.36	1.73982
24.58	2.98435
24.8	16.9517
25.02	1.01003
25.24	0.526213
25.46	18.708
25.68	29.4046
25.9	311.527
26.12	25.4734
26.34	6.23996
26.56	71.6371
26.78	9.56567
27	1.50535
27.22	0.922489
27.44	12.4162
27.66	14.857
27.88	5.74346
28.1	5.5183
28.32	12.6635
28.54	0.481424
28.76	3.99607
28.98	41.2334
29.2	9.79564
29.42	7.27305
29.64	0.344671
29.86	119.054
30.08	10.6738
30.3	14.7703
30.52	635.909
30.74	11.9909
30.96	2.53291
31.18	16.164
31.4	12.3521
31.62	14.7773
31.84	7.36875
32.06	2.75618
32.28	3.65475
32.5	4.98911
32.72	7.09578
32.94	10.4291
33.16	8.15722
33.38	14.921
33.6	11.9018
33.82	10.3443
34.04	9.29425
34.26	11.2476
34.48	19.4051
34.7	22.3331
34.92	17.8832
35.14	302.874
35.36	14.3164
35.58	2.40355
35.8	1.04764
36.02	4.4779
36.24	10.8053
36.46	11.5749
36.68	4.80143
36.9	17.8414
37.12	6.59195
37.34	16.3027
37.56	4.84677
37.78	30.194
38	77.4777
38.22	99.23
38.44	0.726891
38.66	34.468
38.88	27.7459
39.1	4.51826
39.32	4.50803
39.54	8.01725
39.76	22.3634
39.98	5.25506
40.2	3.77866
40.42	9.09434
40.64	6.17255
40.86	17.2561
41.08	2.41713
41.3	11.0852
41.52	15.1303
41.74	29.207
41.96	13.8985
42.18	30.4519
42.4	6.61308
42.62	7.03968
42.84	13.1605
43.06	136.001
43.28	58.6829
43.5	31.1916
43.72	7.84009
43.94	3.14332
44.16	5.93724
44.38	4.70624
44.6	93.2018
44.82	150.695
45.04	9.53027
45.26	26.5146
45.48	9.24271
45.7	4.16479
45.92	19.1572
46.14	4.23545
46.36	7.10396
46.58	16.5876
46.8	9.43828
47.02	16.5765
47.24	1.75255
47.46	9.8459
47.68	25.537
47.9	97.5858
48.12	3.25884
48.34	11.2869
48.56	9.92103
48.78	9.74047
49	10.4114
49.22	25.6214
49.44	15.8851
49.66	25.1905
49.88	5.68227
50.1	4.15385
50.32	7.77573
50.54	9.08843
50.76	7.31291
50.98	0.504435
51.2	4.35596
51.42	13.0962
51.64	3.18197
51.86	30.2408
52.08	36.2158
52.3	7.25291
52.52	12.0071
52.74	10.5909
52.96	2.7452
53.18	7.41437
53.4	15.5934
53.62	2.77492
53.84	6.04837
54.06	0.489172
54.28	2.16021
54.5	0.507772
54.72	10.5671
54.94	4.58764
55.16	4.31293
55.38	7.97958
55.6	0.141199
55.82	11.2823
56.04	44.1812
56.26	10.8675
56.48	29.8799
56.7	12.3018
56.92	3.27189
57.14	0.452765
57.36	0.489683
57.58	20.5768
57.8	22.7585
58.02	13.9759
58.24	53.5584
58.46	16.1295
58.68	25.7695
58.9	8.08571
59.12	2.99849
59.34	3.64079
59.56	15.1354
59.78	10.1184
60	0.983226
60.22	11.8878
60.44	12.8277
60.66	6.24912
60.88	23.8254
61.1	13.5675
61.32	16.613
61.54	6.76912
61.76	12.1638
61.98	16.0645
62.2	6.8471
62.42	16.2086
62.64	15.6423
62.86	9.91116
63.08	0.779306
63.3	0.976415
63.52	30.2722
63.74	15.3076
63.96	8.1152
64.18	12.3771
64.4	11.0849
64.62	26.7452
64.84	33.6359
65.06	9.3044
65.28	15.9454
65.5	8.61322
65.72	9.19768
65.94	8.93683
66.16	28.6835
66.38	23.4353
66.6	10.9869
66.82	13.1269
67.04	27.9169
67.26	29.9647
67.48	8.20421
67.7	4.59047
67.92	0.67111
68.14	12.9407
68.36	12.7032
68.58	13.0872
68.8	2.42662
69.02	0.278846
69.24	5.56196
69.46	2.89914
69.68	0.964898
69.9	13.9333
70.12	8.23516
70.34	5.25279
70.56	1.96275
70.78	4.4058
71	8.21965
71.22	11.1904
71.44	3.0013
71.66	18.5382
71.88	20.2108
72.1	14.1504
72.32	4.55904
72.54	9.82483
72.76	14.1314
72.98	18.3001
73.2	12.6904
73.42	8.53714
73.64	7.72628
73.86	5.7376
74.08	11.8729
74.3	12.0109
74.52	7.1128
74.74	2.28093
74.96	1.40575
75.18	10.8014
75.4	88.7194
75.62	22.0904
75.84	8.33099
76.06	4.08149
76.28	19.1121
76.5	8.03488
76.72	7.97811
76.94	4.01112
77.16	10.0223
77.38	6.19828
77.6	9.95877
77.82	11.0671
78.04	5.18988
78.26	0.80619
78.48	7.09729
78.7	2.16996
78.92	8.59572
79.14	3.83309
79.36	4.97104
79.58	4.10948
79.8	16.5256
80.02	18.4386
80.24	1.35434
80.46	6.27857
80.68	9.25749
80.9	0.772803
81.12	8.22729
81.34	17.1039
81.56	20.3246
81.78	8.38352
82	10.6189
82.22	9.34195
82.44	7.46909
82.66	7.61306
82.88	2.87114
83.1	0.492842
83.32	0.353863
83.54	12.1911
83.76	6.05835
83.98	5.76999
84.2	2.56563
84.42	10.1794
84.64	11.214
84.86	6.73558
85.08	13.2947
85.3	8.88638
85.52	7.91387
85.74	11.2401
85.96	7.45467
86.18	7.52476
86.4	8.65131
86.62	7.85906
86.84	9.38124
87.06	0.422567
87.28	11.3237
87.5	10.5783
87.72	13.8193
87.94	12.0254
88.16	9.07136
88.38	1.12427
88.6	4.52677
88.82	7.60764
89.04	9.44579
89.26	8.18353
89.48	8.28339
89.7	8.33781
89.92	0.337656
