Measurement: Powder, Xray Data XY Processed
Mineral: Russellite
Rruff sample: R060860
Ideal chemistry: Bi_2_WO_6_
Locality: Castle-an-Dinas mine, Saint Columb Major, Cornwall, England
Source: Michael Scott
Description: Brownish-yellow granular
Diffraction sample description: Powder
Measured chemistry: lighter phase: (Bi_1.94_Fe^3+^_0.06_)_Σ=2_W_1.00_O_6_; darker phase: (Bi_1.95_Fe^3+^_0.05_)_Σ=2_W_1.00_O_6_;
Cell parameters: a: 5.4498(7) b: 16.321(2) c: 5.4550(8) alpha: 90 beta: 90 gamma: 90 volume: 485.20(8) crystal system: orthorhombic
x	intensity
5	0
5.22	4.46855
5.44	0.311526
5.66	0.251884
5.88	4.26306
6.1	5.952
6.32	6.7754
6.54	7.51014
6.76	2.64618
6.98	3.45507
7.2	1.21184
7.42	4.95478
7.64	6.58427
7.86	4.29805
8.08	0.107203
8.3	9.39197
8.52	2.98877
8.74	8.31434
8.96	8.5444
9.18	7.54744
9.4	11.3414
9.62	8.29121
9.84	0.142161
10.06	2.79124
10.28	6.55238
10.5	7.44895
10.72	5.25246
10.94	6.89729
11.16	4.98714
11.38	5.97404
11.6	6.73101
11.82	7.80681
12.04	6.0388
12.26	11.3096
12.48	3.74471
12.7	6.90308
12.92	0.011558
13.14	5.24684
13.36	1.56194
13.58	7.61382
13.8	1.62515
14.02	1.79223
14.24	3.88129
14.46	1.83363
14.68	2.54201
14.9	0.371145
15.12	0.091117
15.34	4.90743
15.56	13.134
15.78	2.96936
16	5.03791
16.22	4.17032
16.44	9.16782
16.66	6.31163
16.88	4.37253
17.1	0.347659
17.32	2.51208
17.54	5.27107
17.76	4.22772
17.98	5.92522
18.2	1.85985
18.42	3.83561
18.64	6.72479
18.86	4.68478
19.08	0.481694
19.3	6.43912
19.52	2.15608
19.74	4.08894
19.96	1.29537
20.18	2.27202
20.4	7.35387
20.62	8.42774
20.84	0.298973
21.06	9.1526
21.28	9.38429
21.5	7.32158
21.72	3.31408
21.94	4.35955
22.16	0.550619
22.38	3.20521
22.6	7.15381
22.82	7.96102
23.04	8.85119
23.26	3.82015
23.48	1.40044
23.7	6.41057
23.92	9.33111
24.14	6.32942
24.36	1.98304
24.58	2.6143
24.8	1.72675
25.02	5.24778
25.24	8.29321
25.46	17.8024
25.68	9.7173
25.9	5.23749
26.12	3.32361
26.34	8.38229
26.56	7.03168
26.78	8.78518
27	9.4501
27.22	1.08779
27.44	5.47959
27.66	4.76854
27.88	30.6869
28.1	75.6248
28.32	154.004
28.54	123.9
28.76	52.8575
28.98	23.6666
29.2	18.4028
29.42	19.3203
29.64	11.1317
29.86	11.097
30.08	0.027
30.3	16.0054
30.52	24.6032
30.74	0.43019
30.96	7.67443
31.18	8.68351
31.4	1.38491
31.62	3.20782
31.84	0.866786
32.06	6.85916
32.28	6.85742
32.5	21.7385
32.72	51.0626
32.94	86.2487
33.16	47.351
33.38	27.1928
33.6	17.9759
33.82	8.68062
34.04	5.62751
34.26	10.9289
34.48	6.60601
34.7	5.20211
34.92	5.74438
35.14	7.83085
35.36	3.07694
35.58	4.19662
35.8	12.0999
36.02	2.36059
36.24	12.5712
36.46	0.457702
36.68	9.98102
36.9	9.2188
37.12	9.60652
37.34	3.81242
37.56	11.9927
37.78	5.25719
38	2.61208
38.22	6.55308
38.44	2.52754
38.66	2.55397
38.88	0.666251
39.1	3.70668
39.32	8.75107
39.54	1.57111
39.76	6.43531
39.98	1.33365
40.2	5.18404
40.42	7.9188
40.64	8.86357
40.86	5.80617
41.08	4.70829
41.3	9.76759
41.52	3.76701
41.74	10.7616
41.96	9.69129
42.18	5.79213
42.4	3.81624
42.62	0.029366
42.84	7.36859
43.06	6.476
43.28	1.53354
43.5	4.39135
43.72	4.59516
43.94	9.64283
44.16	9.61946
44.38	5.59499
44.6	7.36042
44.82	2.87079
45.04	6.67508
45.26	6.8532
45.48	4.05823
45.7	3.30578
45.92	10.5181
46.14	3.57717
46.36	5.53511
46.58	19.8663
46.8	26.2601
47.02	37.9027
47.24	79.8314
47.46	40.2897
47.68	19.848
47.9	6.50656
48.12	15.4599
48.34	7.38265
48.56	2.19783
48.78	7.0881
49	0.755731
49.22	0.360311
49.44	0.062687
49.66	6.98311
49.88	6.37777
50.1	8.33402
50.32	1.39512
50.54	7.16725
50.76	2.07503
50.98	2.98305
51.2	8.75509
51.42	9.67266
51.64	5.54993
51.86	1.71075
52.08	7.5628
52.3	11.2206
52.52	6.15102
52.74	6.9075
52.96	0.837326
53.18	4.4898
53.4	3.23165
53.62	1.70583
53.84	7.98893
54.06	1.39284
54.28	2.36512
54.5	3.61702
54.72	4.72755
54.94	2.83643
55.16	8.0548
55.38	19.2733
55.6	36.6962
55.82	62.4114
56.04	83.9148
56.26	46.0822
56.48	5.19384
56.7	1.63691
56.92	4.29817
57.14	7.93767
57.36	2.39497
57.58	1.9097
57.8	0.47947
58.02	3.88944
58.24	7.33088
58.46	14.4999
58.68	28.1758
58.9	11.0078
59.12	9.21169
59.34	6.52762
59.56	9.13224
59.78	3.59738
60	4.05975
60.22	2.38207
60.44	1.73657
60.66	7.98536
60.88	8.97362
61.1	7.17897
61.32	8.06392
61.54	3.02323
61.76	11.0725
61.98	5.90394
62.2	0.009263
62.42	10.9814
62.64	4.07155
62.86	3.09473
63.08	2.31298
63.3	5.43582
63.52	3.44641
63.74	6.48949
63.96	2.52633
64.18	2.54118
64.4	3.4903
64.62	1.69135
64.84	2.73317
65.06	2.73216
65.28	5.79529
65.5	7.60873
65.72	0.866438
65.94	3.73574
66.16	4.69437
66.38	1.37044
66.6	1.55556
66.82	2.49758
67.04	5.28638
67.26	4.31883
67.48	5.09115
67.7	0.204703
67.92	3.56254
68.14	3.10875
68.36	4.89811
68.58	0.68597
68.8	3.65253
69.02	6.62105
69.24	9.59693
69.46	9.74523
69.68	7.00965
69.9	4.43464
70.12	4.80603
70.34	2.29185
70.56	5.5687
70.78	0.22107
71	1.8761
71.22	1.29637
71.44	8.49226
71.66	3.63737
71.88	10.8299
72.1	6.76912
72.32	0.640993
72.54	9.58572
72.76	7.32283
72.98	2.47682
73.2	2.36471
73.42	2.283
73.64	3.99933
73.86	3.01043
74.08	6.68962
74.3	2.94648
74.52	7.34325
74.74	0.859579
74.96	0.357273
75.18	3.83027
75.4	1.85882
75.62	11.4863
75.84	22.4482
76.06	21.6157
76.28	9.23331
76.5	11.9913
76.72	3.6641
76.94	0.37522
77.16	1.4861
77.38	0.649214
77.6	10.2824
77.82	10.2979
78.04	7.40033
78.26	8.1155
78.48	17.8836
78.7	18.4252
78.92	7.04091
79.14	2.71079
79.36	2.1604
79.58	2.77317
79.8	3.58501
80.02	2.67532
80.24	5.91033
80.46	9.45355
80.68	6.99844
80.9	8.49163
81.12	13.4688
81.34	3.31564
81.56	10.3594
81.78	6.40857
82	2.53348
82.22	2.62264
82.44	4.40157
82.66	1.29891
82.88	0.992374
83.1	5.00144
83.32	6.64862
83.54	2.65239
83.76	0.368563
83.98	5.58121
84.2	3.69716
84.42	2.62408
84.64	4.77236
84.86	6.60715
85.08	3.75999
85.3	6.69268
85.52	3.3711
85.74	2.94011
85.96	12.7976
86.18	5.31644
86.4	4.88661
86.62	10.3067
86.84	5.79899
87.06	3.04453
87.28	6.8242
87.5	18.3843
87.72	16.2946
87.94	14.4066
88.16	15.8444
88.38	3.24324
88.6	4.74819
88.82	8.12097
89.04	0.201201
89.26	8.6128
89.48	0.529243
89.7	6.78242
89.92	8.83319
