Measurement: Powder, Xray Data XY Processed
Mineral: Rutile
Rruff sample: R040049
Ideal chemistry: Ti^4+^O_2_
Locality: Graves Mountain, Lincoln County, Georgia, USA
Source: University of Arizona Mineral Museum
Description: Reddish-black fragments
Diffraction sample description: Powder
Measured chemistry: (Ti_1.00_Fe_0.01_)O_2_
Cell parameters: a: 4.5955(1) b: 4.5955(1) c: 2.9598(1) alpha: 90. beta: 90. gamma: 90. volume: 62.510(3) crystal system: tetragonal
x	intensity
5	0
5.22	3.882
5.44	10.578
5.66	7.511
5.88	10.533
6.1	16.933
6.32	18.536
6.54	20.366
6.76	6.417
6.98	3.594
7.2	8.78
7.42	3.96
7.64	6.231
7.86	7.716
8.08	8.877
8.3	2.091
8.52	7.196
8.74	7.825
8.96	6.128
9.18	2.639
9.4	7.919
9.62	11.292
9.84	3.451
10.06	7.368
10.28	10.073
10.5	7.867
10.72	1.739
10.94	10.362
11.16	1.923
11.38	5.868
11.6	6.696
11.82	9.723
12.04	4.693
12.26	1.956
12.48	4.277
12.7	4.405
12.92	7.542
13.14	3.72
13.36	5.846
13.58	3.957
13.8	8.014
14.02	8.064
14.24	4.818
14.46	11.938
14.68	5.927
14.9	7.871
15.12	9.092
15.34	4.355
15.56	0.494
15.78	3.653
16	0.747
16.22	4.818
16.44	0.058
16.66	1.29
16.88	5.506
17.1	3.292
17.32	4.246
17.54	6.264
17.76	3.045
17.98	9.087
18.2	4.109
18.42	1.019
18.64	0.062
18.86	3.986
19.08	1.133
19.3	2.804
19.52	5.863
19.74	2.927
19.96	4.148
20.18	2.258
20.4	2.287
20.62	3.381
20.84	1.693
21.06	7.873
21.28	6.725
21.5	5.654
21.72	1.279
21.94	1.64
22.16	6.688
22.38	12.575
22.6	6.563
22.82	6.536
23.04	5.46
23.26	5.452
23.48	4.506
23.7	6.47
23.92	1.48
24.14	5.436
24.36	6.611
24.58	2.575
24.8	5.596
25.02	3.788
25.24	1.734
25.46	5.695
25.68	3.224
25.9	0.933
26.12	1.729
26.34	0.501
26.56	6.243
26.78	3.845
27	7.642
27.22	9.699
27.44	99.468
27.66	46.582
27.88	9.595
28.1	5.94
28.32	2.09
28.54	1.262
28.76	3.497
28.98	8.678
29.2	1.906
29.42	1.062
29.64	5.064
29.86	5.191
30.08	1.212
30.3	7.473
30.52	1.367
30.74	5.538
30.96	1.375
31.18	4.7
31.4	1.708
31.62	0.73
31.84	4.89
32.06	8.807
32.28	4.644
32.5	0.627
32.72	10.586
32.94	4.567
33.16	6.455
33.38	3.471
33.6	6.791
33.82	3.821
34.04	3.88
34.26	5.577
34.48	5.638
34.7	5.528
34.92	5.261
35.14	2.112
35.36	6.964
35.58	1.906
35.8	8.828
36.02	17.623
36.24	87.571
36.46	9.592
36.68	6.659
36.9	7.616
37.12	1.175
37.34	10.073
37.56	8.265
37.78	2.566
38	3.612
38.22	4.543
38.44	6.398
38.66	1.299
38.88	3.226
39.1	5.151
39.32	8.35
39.54	7.292
39.76	1.093
39.98	5.964
40.2	0.692
40.42	7.726
40.64	0.734
40.86	4.014
41.08	14.08
41.3	94.36
41.52	14.635
41.74	4.395
41.96	5.468
42.18	1.509
42.4	3.542
42.62	7.617
42.84	0.627
43.06	2.626
43.28	4.424
43.5	1.451
43.72	0.78
43.94	3.24
44.16	13.474
44.38	2.43
44.6	1.463
44.82	3.615
45.04	4.622
45.26	4.663
45.48	2.762
45.7	2.808
45.92	4.14
46.14	4.116
46.36	2.934
46.58	2.703
46.8	8.681
47.02	1.209
47.24	2.596
47.46	0.494
47.68	2.496
47.9	4.456
48.12	7.312
48.34	1.878
48.56	10.95
48.78	8.897
49	3.811
49.22	2.775
49.44	5.715
49.66	1.837
49.88	0.044
50.1	4.841
50.32	2.982
50.54	2.153
50.76	4.281
50.98	6.405
51.2	2.728
51.42	4.929
51.64	2.139
51.86	1.054
52.08	3.121
52.3	4.238
52.52	0.84
52.74	4.858
52.96	3.601
53.18	2.296
53.4	5.966
53.62	3.489
53.84	4.126
54.06	9.914
54.28	30.927
54.5	115.815
54.72	23.554
54.94	1.434
55.16	3.625
55.38	5.678
55.6	2.739
55.82	2.847
56.04	1
56.26	3.217
56.48	9.39
56.7	44.463
56.92	12.865
57.14	10.013
57.36	8.177
57.58	2.352
57.8	2.878
58.02	6.125
58.24	6.344
58.46	5.563
58.68	3.761
58.9	4.835
59.12	2.706
59.34	8.817
59.56	2.916
59.78	3.845
60	1.634
60.22	3.593
60.44	0.512
60.66	2.423
60.88	2.299
61.1	3.206
61.32	0.272
61.54	0.054
61.76	7.84
61.98	3.677
62.2	1.408
62.42	3.746
62.64	2.725
62.86	11.658
63.08	2.575
63.3	4.59
63.52	7.463
63.74	4.336
63.96	8.377
64.18	6.507
64.4	5.564
64.62	6.518
64.84	2.534
65.06	2.576
65.28	0.876
65.5	3.159
65.72	4.199
65.94	7.162
66.16	1.195
66.38	5.214
66.6	3.161
66.82	3.039
67.04	2.828
67.26	6.524
67.48	4.383
67.7	2.847
67.92	0.452
68.14	4.154
68.36	3.885
68.58	2.612
68.8	3.204
69.02	64.064
69.24	42.361
69.46	9.443
69.68	4.699
69.9	14.712
70.12	20.068
70.34	0.503
70.56	8.92
70.78	3.323
71	1.579
71.22	7.941
71.44	7.213
71.66	4.098
71.88	3.291
72.1	0.213
72.32	7.363
72.54	7.414
72.76	8.51
72.98	5.482
73.2	6.422
73.42	3.45
73.64	1.374
73.86	3.353
74.08	1.402
74.3	1.526
74.52	2.561
74.74	4.602
74.96	0.521
75.18	0.604
75.4	0.691
75.62	6.255
75.84	6.322
76.06	0.694
76.28	6.294
76.5	5.35
76.72	0.312
76.94	3.467
77.16	2.404
77.38	1.381
77.6	0.472
77.82	9.611
78.04	4.783
78.26	5.703
78.48	4.768
78.7	3.787
78.92	2.641
79.14	3.565
79.36	2.421
79.58	4.374
79.8	10.307
80.02	0.288
80.24	2.505
80.46	3.344
80.68	10.582
80.9	3.698
81.12	3.696
81.34	7.683
81.56	1.578
81.78	4.628
82	5.874
82.22	6.691
82.44	16.587
82.66	12.385
82.88	1.407
83.1	0.857
83.32	2.93
83.54	2.942
83.76	7.908
83.98	5.949
84.2	8.051
84.42	4.061
84.64	8.099
84.86	6.116
85.08	3.16
85.3	2.221
85.52	3.237
85.74	2.308
85.96	0.63
86.18	4.491
86.4	0.445
86.62	4.113
86.84	7.213
87.06	1.286
87.28	3.229
87.5	2.198
87.72	5.229
87.94	4.378
88.16	0.245
88.38	4.947
88.6	2.54
88.82	7.301
89.04	2.918
89.26	1.618
89.48	12.962
89.7	9.816
89.92	1.016
