Measurement: Powder, Xray Data XY Processed
Mineral: Rutile
Rruff sample: R060745
Ideal chemistry: Ti^4+^O_2_
Locality: Zagi Mountain near Hammedabad, Knaffor Dehri, NW Frontier Provence, Pakistan
Source: Herb Obodda
Description: Group of black prismatic crystals
Diffraction sample description: Powder
Measured chemistry: (Ti_0.96_Nb^5+^_0.02_Fe^3+^_0.02_)_Î£=1_O_2_
Cell parameters: a: 4.6134(5) b: 4.6134(5) c: 2.9748(4) alpha: 90 beta: 90 gamma: 90 volume: 63.31(1) crystal system: tetragonal
x	intensity
5	0
5.22	3.67603
5.44	2.49333
5.66	8.96538
5.88	7.78366
6.1	4.8018
6.32	16.7376
6.54	8.42225
6.76	4.06487
6.98	4.80971
7.2	8.61304
7.42	14.0943
7.64	1.33121
7.86	8.07466
8.08	3.04884
8.3	3.76177
8.52	8.36337
8.74	10.5772
8.96	10.5075
9.18	6.62777
9.4	2.84728
9.62	8.76908
9.84	0.07038
10.06	6.1838
10.28	0.230913
10.5	8.43496
10.72	6.72929
10.94	0.297817
11.16	4.72878
11.38	4.6635
11.6	7.81918
11.82	10.912
12.04	7.05976
12.26	7.15799
12.48	9.28764
12.7	3.69613
12.92	0.673304
13.14	3.66062
13.36	5.76799
13.58	5.99405
13.8	7.05031
14.02	2.0565
14.24	10.9342
14.46	1.19834
14.68	4.95194
14.9	13.9517
15.12	1.71182
15.34	10.702
15.56	4.71984
15.78	7.77029
16	8.22243
16.22	7.47907
16.44	2.66595
16.66	7.76843
16.88	9.61016
17.1	2.3545
17.32	3.66893
17.54	1.09655
17.76	8.88534
17.98	9.826
18.2	13.953
18.42	5.40462
18.64	5.32807
18.86	2.44531
19.08	7.43207
19.3	5.31079
19.52	8.43016
19.74	0.441971
19.96	2.35166
20.18	8.32598
20.4	6.26024
20.62	1.66949
20.84	4.37582
21.06	1.16889
21.28	5.01109
21.5	15.0033
21.72	2.28925
21.94	10.2315
22.16	6.14108
22.38	7.02232
22.6	0.904011
22.82	2.03789
23.04	10.8962
23.26	2.92782
23.48	1.05089
23.7	4.14104
23.92	2.16654
24.14	3.68898
24.36	5.88881
24.58	5.80415
24.8	10.1167
25.02	2.86011
25.24	2.7683
25.46	6.43254
25.68	4.31885
25.9	0.854822
26.12	6.3362
26.34	5.85475
26.56	3.56568
26.78	6.15853
27	2.02145
27.22	42.4539
27.44	362.927
27.66	17.9819
27.88	1.89843
28.1	4.05763
28.32	5.3579
28.54	7.97875
28.76	9.22278
28.98	1.75746
29.2	3.08181
29.42	9.29453
29.64	5.56217
29.86	7.33654
30.08	6.62804
30.3	7.85461
30.52	3.97803
30.74	3.0604
30.96	7.85965
31.18	4.19916
31.4	8.98316
31.62	0.121023
31.84	7.01304
32.06	0.992315
32.28	9.09541
32.5	3.88652
32.72	3.16749
32.94	8.15079
33.16	2.25116
33.38	7.1417
33.6	9.13054
33.82	0.980617
34.04	1.27513
34.26	3.488
34.48	7.30452
34.7	8.0379
34.92	0.564949
35.14	5.38563
35.36	10.2159
35.58	5.42503
35.8	7.12493
36.02	115.219
36.24	15.7239
36.46	4.98552
36.68	2.30564
36.9	3.24464
37.12	4.52399
37.34	5.9204
37.56	9.02959
37.78	8.08413
38	8.72297
38.22	2.79515
38.44	6.78103
38.66	3.41501
38.88	12.4757
39.1	30.5548
39.32	2.55943
39.54	6.94613
39.76	6.67958
39.98	3.64046
40.2	1.59397
40.42	8.55804
40.64	6.48741
40.86	7.29024
41.08	55.205
41.3	17.6985
41.52	8.96213
41.74	5.06588
41.96	7.66752
42.18	4.04912
42.4	8.13363
42.62	0.31806
42.84	1.61172
43.06	3.53631
43.28	4.62721
43.5	5.78837
43.72	4.86485
43.94	26.7315
44.16	7.71516
44.38	2.73665
44.6	5.5514
44.82	9.83629
45.04	2.87089
45.26	4.22496
45.48	2.28315
45.7	6.43208
45.92	9.48917
46.14	3.91445
46.36	3.93669
46.58	6.10998
46.8	7.25273
47.02	3.08906
47.24	5.04193
47.46	5.88493
47.68	10.7972
47.9	1.84891
48.12	6.02359
48.34	0.078861
48.56	2.89424
48.78	3.03707
49	2.2039
49.22	8.20518
49.44	3.1975
49.66	12.1754
49.88	6.10795
50.1	5.01482
50.32	4.64617
50.54	12.61
50.76	12.4175
50.98	8.16296
51.2	11.1053
51.42	7.80098
51.64	5.74072
51.86	0.330028
52.08	0.395603
52.3	6.78214
52.52	0.296913
52.74	3.56755
52.96	7.301
53.18	1.00915
53.4	6.85678
53.62	6.78434
53.84	6.52023
54.06	88.5466
54.28	130.516
54.5	12.6169
54.72	3.7643
54.94	2.90795
55.16	5.97088
55.38	8.05536
55.6	3.14644
55.82	3.37358
56.04	1.29692
56.26	25.5028
56.48	50.2826
56.7	18.6519
56.92	2.65239
57.14	4.40714
57.36	0.310971
57.58	8.90432
57.8	6.16282
58.02	0.692445
58.24	10.2937
58.46	0.417756
58.68	2.54305
58.9	1.07711
59.12	2.7673
59.34	7.68028
59.56	2.53701
59.78	1.58243
60	8.63636
60.22	6.74652
60.44	3.64442
60.66	5.70781
60.88	4.63863
61.1	5.43179
61.32	7.85475
61.54	5.69346
61.76	10.534
61.98	6.49736
62.2	5.54756
62.42	11.3453
62.64	18.9974
62.86	13.8405
63.08	0.867248
63.3	6.91407
63.52	0.881624
63.74	20.3882
63.96	12.656
64.18	15.2115
64.4	1.32927
64.62	9.36665
64.84	5.62194
65.06	5.06261
65.28	7.25833
65.5	14.3814
65.72	8.40122
65.94	5.50815
66.16	4.62922
66.38	5.58944
66.6	2.41148
66.82	5.21418
67.04	3.00321
67.26	9.80104
67.48	8.23257
67.7	5.82765
67.92	7.42796
68.14	3.03855
68.36	6.55717
68.58	19.9906
68.8	33.6417
69.02	18.324
69.24	7.39929
69.46	14.5747
69.68	11.6593
69.9	8.91199
70.12	3.33901
70.34	3.90849
70.56	0.656956
70.78	3.0148
71	2.3583
71.22	1.63643
71.44	1.63841
71.66	1.33602
71.88	3.54836
72.1	4.52504
72.32	0.608374
72.54	4.50824
72.76	6.24821
72.98	6.88481
73.2	6.03281
73.42	6.02998
73.64	3.40978
73.86	4.28882
74.08	4.45041
74.3	2.16167
74.52	1.93886
74.74	4.93231
74.96	12.958
75.18	4.03186
75.4	12.0101
75.62	8.86983
75.84	3.89604
76.06	7.76262
76.28	14.9185
76.5	1.92182
76.72	8.7046
76.94	13.6323
77.16	4.60274
77.38	7.62078
77.6	5.55842
77.82	0.510604
78.04	3.73021
78.26	4.56395
78.48	7.42593
78.7	1.30587
78.92	5.15372
79.14	1.12788
79.36	7.06962
79.58	1.16117
79.8	7.07669
80.02	0.191929
80.24	6.48326
80.46	3.43657
80.68	8.49883
80.9	13.4519
81.12	1.33432
81.34	4.2991
81.56	7.18809
81.78	0.329298
82	10.3004
82.22	9.20479
82.44	11.0118
82.66	0.153049
82.88	5.58176
83.1	6.50001
83.32	2.47753
83.54	7.4875
83.76	10.63
83.98	6.80878
84.2	7.99711
84.42	4.01387
84.64	4.25148
84.86	4.14903
85.08	4.21258
85.3	1.70445
85.52	4.48203
85.74	3.49055
85.96	0.522006
86.18	3.28252
86.4	6.15739
86.62	6.97802
86.84	1.10419
87.06	9.09944
87.28	7.13801
87.5	5.11513
87.72	1.18981
87.94	1.01968
88.16	6.9391
88.38	5.98039
88.6	2.91628
88.82	6.01373
89.04	16.6253
89.26	19.3994
89.48	5.22669
89.7	1.62535
89.92	3.42476
