Measurement: Powder, Xray Data XY Processed
Mineral: Rutile
Rruff sample: R050417
Ideal chemistry: Ti^4+^O_2_
Locality: Champion mine, Mono County, California, USA
Source: Marcus Origlieri
Description: Reddish black equant crystals
Diffraction sample description: Powder
Measured chemistry: TiO_2_
Cell parameters: a: 4.59549(8) b: 4.59549(8) c: 2.95969(7) alpha: 90. beta: 90. gamma: 90. volume: 62.504(2) crystal system: tetragonal
x	intensity
5	0
5.22	10.5464
5.44	4.22588
5.66	8.50875
5.88	16.2654
6.1	22.3051
6.32	11.6763
6.54	8.0035
6.76	7.35997
6.98	5.5874
7.2	15.8314
7.42	5.16808
7.64	1.52166
7.86	11.6388
8.08	3.35495
8.3	5.04183
8.52	11.4123
8.74	0.415043
8.96	1.83037
9.18	4.06701
9.4	8.3734
9.62	9.56987
9.84	8.01326
10.06	3.01094
10.28	10.2076
10.5	2.16889
10.72	0.978745
10.94	3.00605
11.16	7.96124
11.38	8.90202
11.6	7.67653
11.82	8.59722
12.04	9.39746
12.26	2.34443
12.48	0.534002
12.7	3.46476
12.92	5.50751
13.14	9.48337
13.36	6.62406
13.58	3.80353
13.8	8.88432
14.02	10.9798
14.24	12.0271
14.46	11.2626
14.68	0.773584
14.9	3.33863
15.12	3.66457
15.34	1.13715
15.56	4.4808
15.78	2.57805
16	5.72792
16.22	8.91324
16.44	4.11095
16.66	3.19263
16.88	4.18399
17.1	5.23384
17.32	11.2452
17.54	5.25616
17.76	0.931895
17.98	5.75613
18.2	4.84617
18.42	4.76273
18.64	4.57676
18.86	7.74416
19.08	2.95361
19.3	3.01135
19.52	5.10462
19.74	6.19045
19.96	2.34437
20.18	8.44791
20.4	5.56291
20.62	5.60477
20.84	0.719428
21.06	1.12268
21.28	6.77707
21.5	1.73885
21.72	7.04441
21.94	3.17994
22.16	1.06807
22.38	0.043068
22.6	2.91698
22.82	8.07382
23.04	2.9752
23.26	7.90422
23.48	0.724144
23.7	4.80316
23.92	11.4317
24.14	6.50207
24.36	4.20674
24.58	4.10764
24.8	22.1939
25.02	8.23808
25.24	4.28257
25.46	2.40509
25.68	5.19888
25.9	1.96525
26.12	4.50596
26.34	3.85603
26.56	3.6326
26.78	3.23083
27	3.92085
27.22	9.50368
27.44	136.162
27.66	81.9864
27.88	15.8158
28.1	4.98817
28.32	8.48017
28.54	7.76943
28.76	4.21545
28.98	4.53611
29.2	5.89553
29.42	6.23331
29.64	0.513389
29.86	4.70691
30.08	3.90326
30.3	2.01827
30.52	11.0729
30.74	7.04854
30.96	3.13758
31.18	2.14688
31.4	5.37736
31.62	2.41937
31.84	0.522379
32.06	3.56271
32.28	4.48199
32.5	8.67984
32.72	5.79585
32.94	2.80575
33.16	7.89604
33.38	7.92742
33.6	9.69622
33.82	4.81917
34.04	2.84391
34.26	3.70975
34.48	3.62778
34.7	10.4691
34.92	4.00363
35.14	11.8108
35.36	2.70439
35.58	4.56475
35.8	5.54977
36.02	30.6349
36.24	122.627
36.46	5.82881
36.68	5.90867
36.9	7.03974
37.12	4.26589
37.34	8.48483
37.56	3.77558
37.78	7.87275
38	12.8376
38.22	2.80436
38.44	2.78243
38.66	2.58521
38.88	1.54418
39.1	3.82369
39.32	14.9056
39.54	5.07294
39.76	3.02998
39.98	0.849178
40.2	1.17682
40.42	3.7808
40.64	3.72824
40.86	0.185352
41.08	6.73651
41.3	89.686
41.52	15.5528
41.74	5.47189
41.96	5.25325
42.18	6.3667
42.4	7.48311
42.62	2.65791
42.84	5.68934
43.06	6.73261
43.28	3.62972
43.5	9.82508
43.72	3.69575
43.94	16.8209
44.16	23.8709
44.38	10.8763
44.6	0.128887
44.82	0.699653
45.04	6.81019
45.26	7.22689
45.48	3.37898
45.7	5.53181
45.92	5.53977
46.14	7.53991
46.36	1.3928
46.58	5.63882
46.8	3.57404
47.02	2.49225
47.24	5.40893
47.46	2.58447
47.68	5.23026
47.9	4.10362
48.12	6.02646
48.34	7.8938
48.56	5.91485
48.78	10.9553
49	2.64544
49.22	11.6623
49.44	4.68507
49.66	3.75636
49.88	3.50052
50.1	4.76845
50.32	6.87383
50.54	7.83445
50.76	7.92444
50.98	3.89371
51.2	5.9322
51.42	6.94677
51.64	2.05714
51.86	0.993547
52.08	5.39247
52.3	2.30215
52.52	3.08217
52.74	3.9189
52.96	3.76114
53.18	0.472057
53.4	2.31119
53.62	1.96629
53.84	10.79
54.06	6.74505
54.28	64.8327
54.5	131.252
54.72	17.4196
54.94	7.43214
55.16	4.59616
55.38	2.63907
55.6	5.69741
55.82	1.83433
56.04	1.03125
56.26	6.19843
56.48	15.1869
56.7	59.2576
56.92	16.6794
57.14	8.66243
57.36	2.5834
57.58	5.77902
57.8	5.97608
58.02	6.30724
58.24	10.513
58.46	0.588161
58.68	0.698442
58.9	8.8091
59.12	1.88651
59.34	1.66425
59.56	4.74572
59.78	2.89382
60	3.0585
60.22	0.048121
60.44	2.8486
60.66	0.737268
60.88	0.671759
61.1	8.80333
61.32	1.71213
61.54	5.49622
61.76	8.38241
61.98	4.0511
62.2	6.84453
62.42	2.93027
62.64	6.78219
62.86	17.6606
63.08	11.5686
63.3	1.39422
63.52	10.197
63.74	1.1866
63.96	11.2783
64.18	18.509
64.4	8.5383
64.62	1.56688
64.84	0.693498
65.06	5.53263
65.28	2.75813
65.5	0.844325
65.72	3.04201
65.94	3.18812
66.16	2.31759
66.38	2.49858
66.6	1.31232
66.82	4.58958
67.04	4.70389
67.26	3.49007
67.48	6.15152
67.7	0.791883
67.92	1.48983
68.14	9.02343
68.36	1.56563
68.58	2.92831
68.8	11.6483
69.02	52.4386
69.24	28.0225
69.46	7.20968
69.68	2.2678
69.9	25.7321
70.12	7.12328
70.34	10.5556
70.56	0.89318
70.78	2.48561
71	0.900794
71.22	8.26895
71.44	4.54059
71.66	7.89659
71.88	10.7642
72.1	3.93942
72.32	3.81157
72.54	1.77389
72.76	1.01128
72.98	6.85532
73.2	6.01777
73.42	6.98727
73.64	2.97653
73.86	0.986204
74.08	2.91822
74.3	5.97786
74.52	6.88513
74.74	6.87145
74.96	5.12161
75.18	2.92019
75.4	3.97914
75.62	3.83969
75.84	4.85407
76.06	4.91972
76.28	0.98402
76.5	1.00001
76.72	3.05034
76.94	7.14248
77.16	2.34342
77.38	0.235176
77.6	7.23577
77.82	1.32192
78.04	4.3416
78.26	4.45117
78.48	5.38214
78.7	3.36479
78.92	4.39725
79.14	4.20708
79.36	4.09713
79.58	6.06495
79.8	5.89995
80.02	0.817763
80.24	4.87484
80.46	2.72415
80.68	2.62159
80.9	1.5809
81.12	0.476637
81.34	3.38529
81.56	4.2915
81.78	2.15104
82	4.24073
82.22	4.29859
82.44	12.1629
82.66	9.93753
82.88	5.12612
83.1	3.07997
83.32	2.95305
83.54	3.93322
83.76	2.93212
83.98	3.12124
84.2	5.1283
84.42	7.99252
84.64	2.94206
84.86	0.022261
85.08	1.04732
85.3	3.14202
85.52	6.21987
85.74	5.44723
85.96	2.54081
86.18	1.7192
86.4	5.77317
86.62	3.84361
86.84	1.89881
87.06	4.03033
87.28	3.40879
87.5	11.4177
87.72	9.46664
87.94	7.70908
88.16	8.677
88.38	3.52827
88.6	10.1197
88.82	0.38532
89.04	2.53757
89.26	2.93569
89.48	17.2477
89.7	18.1879
89.92	0.075628
