Measurement: Powder, Xray Data XY Processed
Mineral: Rutile
Rruff sample: R050031
Ideal chemistry: Ti^4+^O_2_
Locality: Chester City, Pennsylvannia, USA
Source: University of Arizona Mineral Museum
Description: Reddish brown single crystal fragment
Diffraction sample description: Powder
Measured chemistry: TiO_2_
Cell parameters: a: 4.5945(1) b: 4.5945(1) c: 2.9594(1) alpha: 90. beta: 90. gamma: 90. volume: 62.472(3) crystal system: tetragonal
x	intensity
5	0
5.22	3.266
5.44	11.258
5.66	8.532
5.88	18.608
6.1	9.09
6.32	15.848
6.54	8.629
6.76	4.818
6.98	10.241
7.2	1.715
7.42	4.044
7.64	5.285
7.86	0.62
8.08	15.441
8.3	7.768
8.52	6.867
8.74	1.634
8.96	3.648
9.18	7.907
9.4	3.581
9.62	7.814
9.84	5.066
10.06	4.19
10.28	11.287
10.5	3.348
10.72	6.24
10.94	8.14
11.16	5.955
11.38	13.025
11.6	6.955
11.82	7.401
12.04	6.024
12.26	12.011
12.48	11.363
12.7	4.185
12.92	5.264
13.14	8.517
13.36	4.706
13.58	1.04
13.8	10.912
14.02	5.145
14.24	4.3
14.46	4.385
14.68	4.484
14.9	2.264
15.12	3.309
15.34	1.15
15.56	5.285
15.78	4.661
16	3.91
16.22	5.08
16.44	0.988
16.66	3.114
16.88	4.372
17.1	3.795
17.32	11.023
17.54	7.253
17.76	5.596
17.98	7.663
18.2	5.464
18.42	3.446
18.64	3.453
18.86	3.537
19.08	11.495
19.3	3.345
19.52	5.152
19.74	11.241
19.96	2.174
20.18	4.03
20.4	2.197
20.62	3.211
20.84	1.345
21.06	9.426
21.28	0.421
21.5	9.538
21.72	4.872
21.94	5.969
22.16	0.769
22.38	5.912
22.6	4.993
22.82	5.878
23.04	4.774
23.26	0.75
23.48	0.787
23.7	6.701
23.92	9.888
24.14	2.449
24.36	5.525
24.58	11.483
24.8	13.281
25.02	6.104
25.24	2.809
25.46	9.457
25.68	4.928
25.9	5.291
26.12	1.758
26.34	1.069
26.56	6.434
26.78	0.677
27	9.241
27.22	29.896
27.44	487.683
27.66	68.782
27.88	23.985
28.1	11.192
28.32	6.847
28.54	5.362
28.76	8.032
28.98	0.434
29.2	2.057
29.42	3.536
29.64	3.079
29.86	0.28
30.08	7.648
30.3	8.807
30.52	10.058
30.74	3.989
30.96	3.107
31.18	9.087
31.4	5.143
31.62	3.181
31.84	0.779
32.06	4.23
32.28	4.267
32.5	1.231
32.72	4.335
32.94	1.549
33.16	3.718
33.38	1.777
33.6	7.923
33.82	9.816
34.04	6.811
34.26	1.466
34.48	2.166
34.7	0.845
34.92	3.484
35.14	2.063
35.36	9.589
35.58	6.416
35.8	14.174
36.02	62.207
36.24	103.4
36.46	15.696
36.68	1.04
36.9	5.291
37.12	4.751
37.34	0.893
37.56	3.359
37.78	2.992
38	0.99
38.22	1.857
38.44	8.019
38.66	5.751
38.88	0.649
39.1	13.61
39.32	26.555
39.54	1.68
39.76	2.46
39.98	6.387
40.2	1.915
40.42	1.099
40.64	1.899
40.86	2.774
41.08	15.989
41.3	85.265
41.52	16.336
41.74	13.52
41.96	2.23
42.18	0.707
42.4	4.37
42.62	5.477
42.84	10.434
43.06	1.379
43.28	5.357
43.5	8.124
43.72	3.036
43.94	8.758
44.16	33.739
44.38	1.911
44.6	2.14
44.82	5.423
45.04	9.606
45.26	2.986
45.48	3.373
45.7	4.849
45.92	5.045
46.14	4.991
46.36	2.143
46.58	5.218
46.8	9.112
47.02	11.146
47.24	3.005
47.46	3.836
47.68	4.592
47.9	2.456
48.12	12.538
48.34	1.497
48.56	8.444
48.78	9.347
49	4.378
49.22	2.441
49.44	2.351
49.66	2.262
49.88	7.444
50.1	8.506
50.32	1.439
50.54	4.207
50.76	5.241
50.98	5.472
51.2	6.529
51.42	1.512
51.64	9.616
51.86	9.717
52.08	4.735
52.3	8.348
52.52	2.026
52.74	5.604
52.96	1.126
53.18	0.404
53.4	1.183
53.62	9.242
53.84	9.862
54.06	12.443
54.28	120.803
54.5	150.933
54.72	13.077
54.94	7.789
55.16	3.003
55.38	4.29
55.6	1.349
55.82	4.027
56.04	4.372
56.26	7.046
56.48	18.305
56.7	63.603
56.92	22.699
57.14	12.607
57.36	5.571
57.58	11.79
57.8	2.136
58.02	6.442
58.24	5.726
58.46	6.079
58.68	5.949
58.9	4.178
59.12	5.753
59.34	0.181
59.56	2.733
59.78	10.812
60	1.835
60.22	5.102
60.44	4.952
60.66	0.701
60.88	4.626
61.1	0.575
61.32	7.318
61.54	4.743
61.76	0.451
61.98	4.061
62.2	0.807
62.42	6.513
62.64	7.186
62.86	16.971
63.08	7.812
63.3	0.407
63.52	0.516
63.74	1.456
63.96	14.592
64.18	17.822
64.4	7.138
64.62	0.267
64.84	0.302
65.06	14.029
65.28	10.549
65.5	13.846
65.72	3.406
65.94	8.696
66.16	3.747
66.38	6.796
66.6	2.079
66.82	4.847
67.04	0.808
67.26	5.507
67.48	2.758
67.7	9.082
67.92	4.541
68.14	1.703
68.36	5.138
68.58	3.615
68.8	17.259
69.02	75.596
69.24	39.584
69.46	8.707
69.68	5.999
69.9	21.454
70.12	9.018
70.34	3.498
70.56	6.242
70.78	1.016
71	1.55
71.22	8.894
71.44	4.225
71.66	0.613
71.88	2.461
72.1	2.327
72.32	4.415
72.54	2.317
72.76	4.618
72.98	1.612
73.2	0.352
73.42	2.43
73.64	0.436
73.86	1.524
74.08	10.649
74.3	1.821
74.52	3.891
74.74	9.914
74.96	5.083
75.18	7.672
75.4	6.653
75.62	6.618
75.84	3.558
76.06	1.525
76.28	1.582
76.5	9.422
76.72	7.457
76.94	9.416
77.16	1.535
77.38	4.462
77.6	3.574
77.82	3.735
78.04	4.817
78.26	1.049
78.48	0.005
78.7	8.149
78.92	3.166
79.14	6.956
79.36	8.946
79.58	5.828
79.8	5.792
80.02	1.588
80.24	5.708
80.46	6.907
80.68	0.749
80.9	6.657
81.12	4.367
81.34	4.287
81.56	6.174
81.78	7.04
82	1.884
82.22	9.058
82.44	13.845
82.66	3.572
82.88	4.364
83.1	7.343
83.32	1.329
83.54	1.321
83.76	5.523
83.98	2.581
84.2	10.88
84.42	2.016
84.64	3.021
84.86	0.317
85.08	6.545
85.3	5.931
85.52	6.166
85.74	6.332
85.96	0.416
86.18	4.299
86.4	6.314
86.62	0.21
86.84	8.15
87.06	3.024
87.28	6.91
87.5	5.825
87.72	3.991
87.94	5.069
88.16	7.136
88.38	2.883
88.6	0.399
88.82	4.761
89.04	0.64
89.26	1.579
89.48	8.768
89.7	12.003
89.92	1.495
