Measurement: Powder, Xray Data XY Processed
Mineral: Sainfeldite
Rruff sample: R060273
Ideal chemistry: Ca_5_(As^5+^O_4_)_2_(As^5+^O_3_OH)_2_4H_2_O
Locality: Grube Gift (Gift mine), Sainte Marie-aux-mines, Alsace, France
Source: Michael Scott
Description: Bladed colorless crystals
Diffraction sample description: Single crystal, powder profile is calculated
Measured chemistry: (Ca_4.98_Mn_0.02_)_Σ=5_(As_1.00_O_4_)_2_(As_1.00_O_3_OH)_2_·4H_2_O
Cell parameters: a: 18.737(6) b: 9.775(4) c: 10.164(3) alpha: 90 beta: 96.97(1) gamma: 90 volume: 1848(1) crystal system: monoclinic
x	intensity
5	0
5.22	0
5.44	0
5.66	0
5.88	0
6.1	0
6.32	0
6.54	0
6.76	0
6.98	0
7.2	0
7.42	0
7.64	0
7.86	0
8.08	0
8.3	0
8.52	0
8.74	0
8.96	0
9.18	0
9.4	0.009
9.62	0.017
9.84	0
10.06	0
10.28	10.158
10.5	0
10.72	0
10.94	0
11.16	0
11.38	0
11.6	0
11.82	0
12.04	0
12.26	0
12.48	0
12.7	0
12.92	0
13.14	3.586
13.36	0
13.58	0
13.8	3.192
14.02	0
14.24	0
14.46	0
14.68	0
14.9	0
15.12	0
15.34	0
15.56	0
15.78	0
16	0
16.22	0
16.44	0
16.66	0
16.88	0.39
17.1	0
17.32	0
17.54	0.717
17.76	0
17.98	0
18.2	10.766
18.42	0.001
18.64	0
18.86	0.152
19.08	24.327
19.3	0
19.52	0
19.74	0.001
19.96	6.632
20.18	0.062
20.4	0.002
20.62	0.236
20.84	0.038
21.06	10.426
21.28	0
21.5	0
21.72	0
21.94	6.424
22.16	0
22.38	0
22.6	0
22.82	18.678
23.04	0
23.26	0.028
23.48	0
23.7	0
23.92	0
24.14	0
24.36	0.469
24.58	0
24.8	0
25.02	0
25.24	0.014
25.46	3.321
25.68	5.578
25.9	0.01
26.12	56.027
26.34	93.647
26.56	1.134
26.78	0
27	0.001
27.22	9.13
27.44	0
27.66	2.936
27.88	55.536
28.1	6.681
28.32	0
28.54	0.001
28.76	4.308
28.98	27.9
29.2	0.002
29.42	3.294
29.64	0.004
29.86	0
30.08	5.548
30.3	0
30.52	2.695
30.74	0.014
30.96	1.899
31.18	0
31.4	0
31.62	0.001
31.84	8.451
32.06	3.687
32.28	11.263
32.5	0.001
32.72	9.685
32.94	4.005
33.16	1.553
33.38	0.443
33.6	0
33.82	0
34.04	0
34.26	0.438
34.48	5.294
34.7	0.514
34.92	0.085
35.14	2.097
35.36	0
35.58	10.24
35.8	2.816
36.02	0.916
36.24	1.612
36.46	0.404
36.68	5.564
36.9	0.194
37.12	11.647
37.34	0.455
37.56	0.389
37.78	0.244
38	0.756
38.22	0.023
38.44	9.345
38.66	4.072
38.88	0.948
39.1	0.181
39.32	2.666
39.54	2.569
39.76	0.001
39.98	1.442
40.2	5.643
40.42	0.124
40.64	0.168
40.86	0.014
41.08	0.188
41.3	1.176
41.52	0.043
41.74	7.598
41.96	0.002
42.18	3.096
42.4	5.535
42.62	0.045
42.84	9.342
43.06	0.416
43.28	0.056
43.5	0.472
43.72	0
43.94	5.809
44.16	0.207
44.38	0
44.6	1.93
44.82	0.945
45.04	2.97
45.26	0.065
45.48	0.352
45.7	0.729
45.92	0.816
46.14	0.572
46.36	1.189
46.58	1.288
46.8	1.359
47.02	0.082
47.24	0.117
47.46	4.642
47.68	4.009
47.9	0.419
48.12	0
48.34	0
48.56	0.021
48.78	3.509
49	0.193
49.22	1.553
49.44	1.982
49.66	2.14
49.88	2.761
50.1	2.246
50.32	0.09
50.54	0.45
50.76	0.18
50.98	0.635
51.2	0.006
51.42	1.149
51.64	2.016
51.86	0.002
52.08	5.509
52.3	2.861
52.52	0.612
52.74	0.542
52.96	0.231
53.18	0.962
53.4	0
53.62	1.38
53.84	1.918
54.06	0.715
54.28	8.409
54.5	3.522
54.72	0.706
54.94	0.096
55.16	1.941
55.38	0.173
55.6	0.243
55.82	0.655
56.04	0.502
56.26	3.742
56.48	1.285
56.7	3.09
56.92	1.255
57.14	3.706
57.36	3.482
57.58	1.946
57.8	1.629
58.02	5.167
58.24	0.541
58.46	0.098
58.68	0.991
58.9	0.397
59.12	1.01
59.34	3.12
59.56	3.311
59.78	3.335
60	0.684
60.22	2.657
60.44	2.673
60.66	2.18
60.88	2.654
61.1	0.373
61.32	1.43
61.54	1.141
61.76	0.903
61.98	0.298
62.2	0.008
62.42	1.077
62.64	0.705
62.86	2.901
63.08	1.879
63.3	0.241
63.52	0.417
63.74	0.13
63.96	1.753
64.18	0.773
64.4	0.565
64.62	2.135
64.84	0.333
65.06	0.452
65.28	0.484
65.5	0.213
65.72	0.356
65.94	0.548
66.16	0.322
66.38	0.154
66.6	0.025
66.82	0.226
67.04	0.647
67.26	1.722
67.48	0.685
67.7	0.171
67.92	1.098
68.14	1.981
68.36	0.213
68.58	0.697
68.8	0.406
69.02	0.209
69.24	0.875
69.46	1.367
69.68	0.25
69.9	1.282
70.12	1.854
70.34	1.175
70.56	0.873
70.78	0.234
71	0.034
71.22	0.175
71.44	0.406
71.66	0.467
71.88	2.187
72.1	1.559
72.32	0.431
72.54	0.073
72.76	0.579
72.98	0.324
73.2	0.356
73.42	0.297
73.64	0.224
73.86	0.881
74.08	2.518
74.3	1.136
74.52	0.319
74.74	0.605
74.96	0.232
75.18	0.035
75.4	0.036
75.62	0.174
75.84	0.948
76.06	0.672
76.28	2.284
76.5	1.156
76.72	0.61
76.94	0.607
77.16	0.268
77.38	0.54
77.6	0.653
77.82	0.492
78.04	0.212
78.26	0.614
78.48	0.399
78.7	1.296
78.92	0.978
79.14	1.453
79.36	0.746
79.58	0.127
79.8	0.363
80.02	0.935
80.24	0.529
80.46	0.605
80.68	0.265
80.9	0.049
81.12	1.373
81.34	1.222
81.56	0.562
81.78	0.701
82	1.125
82.22	0.161
82.44	0.545
82.66	1.283
82.88	0.483
83.1	1.156
83.32	1.646
83.54	0.412
83.76	0.217
83.98	0.175
84.2	0.647
84.42	0.867
84.64	0.753
84.86	1.586
85.08	1.521
85.3	1.154
85.52	1.689
85.74	1.781
85.96	0.422
86.18	0.786
86.4	0.135
86.62	0.549
86.84	1.281
87.06	0.615
87.28	0.644
87.5	0.303
87.72	0.288
87.94	0.764
88.16	0.517
88.38	0.284
88.6	0.512
88.82	1.383
89.04	0.488
89.26	0.101
89.48	0.353
89.7	1.01
89.92	0.227
