Measurement: Powder, Xray Data XY Processed
Mineral: Sampleite
Rruff sample: R050572
Ideal chemistry: NaCaCu^2+^_5_(P^5+^O_4_)_4_Cl5H_2_O
Locality: Chuquicamata pit, Chuquicamata, Chile
Source: University of Arizona Mineral Museum
Description: Blue massive crust, associated with green atacamite
Diffraction sample description: Powder, using Mo radiation
Measured chemistry: (Na_0.95_K_0.05_)_Σ=1_Ca_1.00_Cu_5.00_(P_1.00_O_4_)_4_Cl_1.00_·5H_2_O
x	intensity
6.59	0
6.74	1.7226
6.89	14.441
7.04	6.97446
7.19	37.2947
7.34	42.7977
7.49	44.0288
7.64	29.2185
7.79	43.1118
7.94	33.9797
8.09	19.4047
8.24	30.8924
8.39	57.7379
8.54	94.0466
8.69	127.842
8.84	144.977
8.99	153.211
9.14	177.696
9.29	263.316
9.44	366.75
9.59	362.591
9.74	275.239
9.89	201.405
10.04	158.251
10.19	132.021
10.34	118.797
10.49	95.1571
10.64	102.975
10.79	73.4741
10.94	38.7473
11.09	11.0865
11.24	11.9585
11.39	5.94992
11.54	7.1524
11.69	12.4542
11.84	23.1796
11.99	11.5307
12.14	30.6483
12.29	22.8719
12.44	58.4644
12.59	105.083
12.74	136.456
12.89	123.766
13.04	172.304
13.19	397.347
13.34	855.799
13.49	1023.36
13.64	842.534
13.79	502.421
13.94	374.293
14.09	439.8
14.24	417.903
14.39	303.723
14.54	236.369
14.69	201.008
14.84	136.307
14.99	124.308
15.14	218.412
15.29	343.351
15.44	339.112
15.59	266.62
15.74	268.136
15.89	255.931
16.04	202.021
16.19	131.121
16.34	83.423
16.49	76.4652
16.64	144.383
16.79	281.104
16.94	363.353
17.09	244.501
17.24	146.724
17.39	97.8407
17.54	78.4626
17.69	52.5591
17.84	31.7427
17.99	24.2012
18.14	21.6396
18.29	11.08
18.44	18.9913
18.59	31.4468
18.74	97.1959
18.89	167.557
19.04	133.424
19.19	71.2211
19.34	59.0765
19.49	43.5081
19.64	29.9212
19.79	26.7199
19.94	24.2202
20.09	6.93341
20.24	6.90454
20.39	3.43375
20.54	20.109
20.69	30.9447
20.84	22.0137
20.99	25.7829
21.14	46.5351
21.29	101.725
21.44	146.983
21.59	153.992
21.74	102.775
21.89	55.4773
22.04	19.201
22.19	13.4884
22.34	22.7308
22.49	6.6008
22.64	27.9783
22.79	36.3199
22.94	36.7105
23.09	29.7528
23.24	14.1485
23.39	13.831
23.54	55.3748
23.69	204.405
23.84	478.149
23.99	618.672
24.14	440.01
24.29	239.851
24.44	121.647
24.59	76.4257
24.74	39.7274
24.89	12.4472
25.04	2.30112
25.19	36.2734
25.34	115.954
25.49	152.386
25.64	94.5178
25.79	37.5036
25.94	28.5621
26.09	27.4864
26.24	9.7175
26.39	10.614
26.54	2.04196
26.69	36.552
26.84	117.428
26.99	218.258
27.14	289.758
27.29	238.537
27.44	177.502
27.59	137.022
27.74	122.337
27.89	116.972
28.04	124.236
28.19	122.781
28.34	114.266
28.49	100.489
28.64	70.9005
28.79	52.0855
28.94	27.3343
29.09	21.9982
29.24	15.6234
29.39	1.75867
29.54	6.56677
29.69	16.8552
29.84	60.1078
29.99	135.922
30.14	135.812
30.29	87.2924
30.44	53.2519
30.59	21.1257
30.74	21.7223
30.89	43.5531
31.04	75.2202
31.19	103.537
31.34	98.55
31.49	87.1219
31.64	59.7908
31.79	38.6092
31.94	21.1179
32.09	19.293
32.24	14.8718
32.39	5.49756
32.54	2.47894
32.69	1.52438
32.84	2.63678
32.99	2.60446
33.14	18.9871
33.29	55.5455
33.44	82.878
33.59	72.1671
33.74	40.6555
33.89	36.9218
34.04	67.8446
34.19	80.1304
34.34	52.6715
34.49	23.8265
34.64	16.1014
34.79	18.9532
34.94	19.5809
35.09	14.8452
35.24	18.3739
35.39	19.5023
35.54	29.1087
35.69	28.5696
35.84	29.1551
35.99	27.712
36.14	23.0263
36.29	22.4638
36.44	24.4092
36.59	23.6716
36.74	26.8719
36.89	25.2824
37.04	22.2166
37.19	18.6978
37.34	7.54721
37.49	0.107758
37.64	5.56811
37.79	6.85681
37.94	0.685242
38.09	29.3725
38.24	43.7865
38.39	40.742
38.54	37.263
38.69	35.8863
38.84	33.3008
38.99	19.2809
39.14	16.3799
39.29	16.7828
39.44	8.07034
39.59	9.10022
39.74	12.4025
39.89	14.8179
40.04	8.40338
40.19	20.6824
40.34	11.1549
40.49	21.7542
40.64	21.6525
40.79	14.4904
40.94	21.1064
41.09	11.3063
41.24	13.8682
41.39	26.7805
41.54	21.9885
41.69	22.9519
41.84	19.66
41.99	17.6096
42.14	19.5623
42.29	11.096
42.44	14.6797
42.59	21.2227
42.74	30.9426
42.89	45.9308
43.04	66.7733
43.19	71.1984
43.34	71.374
43.49	61.9128
43.64	52.8042
43.79	57.9317
43.94	55.5212
44.09	80.7189
44.24	84.6941
44.39	79.1847
44.54	59.5051
44.69	46.0122
44.84	23.4875
44.99	20.9575
45.14	9.87698
45.29	3.31805
45.44	6.89719
45.59	3.70364
45.74	3.31854
45.89	9.93918
46.04	18.2809
46.19	19.5802
46.34	24.7262
46.49	28.7727
46.64	25.1589
46.79	14.3835
46.94	0.978821
47.09	1.33087
47.24	3.17093
47.39	13.7108
47.54	3.64139
47.69	14.3191
47.84	15.5524
47.99	26.4504
48.14	16.3505
48.29	21.2118
48.44	25.338
48.59	28.9219
48.74	25.0946
48.89	18.3522
49.04	11.1352
49.19	13.0793
49.34	13.873
49.49	9.54645
49.64	18.1375
49.79	13.9611
49.94	5.59256
50.09	10.4059
50.24	10.6953
50.39	13.5897
50.54	19.5908
50.69	14.7866
50.84	25.5673
50.99	23.1438
51.14	14.6226
51.29	13.8471
51.44	4.73792
51.59	10.7219
51.74	3.20721
51.89	1.36896
52.04	2.24188
52.19	6.59497
52.34	5.10141
52.49	2.68689
52.64	7.86417
52.79	22.7118
52.94	17.7957
53.09	14.0277
53.24	14.8116
53.39	18.7608
53.54	29.7638
53.69	11.7669
53.84	20.4788
53.99	18.2928
54.14	19.8991
54.29	6.32959
54.44	2.28329
54.59	0.965088
54.74	5.63535
54.89	6.34045
55.04	10.0232
55.19	12.173
55.34	14.7825
55.49	16.7535
55.64	9.03757
55.79	13.7141
55.94	7.9859
56.09	6.07282
56.24	19.6835
56.39	2.63236
56.54	5.83734
56.69	8.59344
56.84	6.76352
56.99	12.2881
57.14	24.031
57.29	25.0638
57.44	14.5775
57.59	15.5953
57.74	12.4779
57.89	14.1449
58.04	1.82498
58.19	0.373566
58.34	6.69742
58.49	11.6317
58.64	2.68347
58.79	1.43131
58.94	13.7626
59.09	2.84033
59.24	9.06964
59.39	0.138824
59.54	4.0134
59.69	0.040649
59.84	0.201935
59.99	1.49286
60.14	2.86771
60.29	0.223297
60.44	8.1615
60.59	1.86328
60.74	2.97891
60.89	13.4017
61.04	15.1179
61.19	5.83292
61.34	9.50275
61.49	18.3919
61.64	10.634
61.79	16.6759
61.94	6.92691
62.09	8.90659
62.24	12.0213
62.39	13.0133
62.54	4.92094
62.69	10.6905
62.84	9.22078
62.99	4.86551
63.14	17.4353
63.29	10.7662
63.44	9.18289
63.59	8.56085
63.74	10.6772
63.89	0.077225
64.04	13.1057
64.19	9.54588
64.34	12.125
64.49	5.67479
64.64	13.0396
64.79	9.9308
64.94	7.32457
65.09	0
