Measurement: Powder, Xray Data XY Processed
Mineral: Sanidine
Rruff sample: R060313
Ideal chemistry: KAlSi_3_O_8_
Locality: Eifel Mountains, Rhineland-Palatinate, Germany
Source: Herb Obodda
Description: Pale yellow transparent cleavage fragment. Crystal structure given below.
Diffraction sample description: Powder
Measured chemistry: (K_0.85_Na_0.14_Ba_0.01_)_Î£=1_Al_1.04_Si_2.96_O_8_
Cell parameters: a: 8.5602(6) b: 13.0247(8) c: 7.1867(6) alpha: 90 beta: 115.990(6) gamma: 90 volume: 720.25(6) crystal system: monoclinic
x	intensity
5	0
5.22	9.961
5.44	8.085
5.66	11.811
5.88	14.937
6.1	11.628
6.32	20.996
6.54	10.421
6.76	2.994
6.98	13.591
7.2	7.328
7.42	11.381
7.64	5.069
7.86	0.15
8.08	9.489
8.3	5.744
8.52	14.225
8.74	4.638
8.96	1.338
9.18	8.218
9.4	7.478
9.62	3.689
9.84	2.562
10.06	6.793
10.28	0.176
10.5	6.068
10.72	5.368
10.94	7.56
11.16	2.793
11.38	0.005
11.6	7.197
11.82	4.395
12.04	0.745
12.26	8.875
12.48	8.977
12.7	4.054
12.92	4.007
13.14	4.063
13.36	7.108
13.58	7.254
13.8	8.117
14.02	4.033
14.24	0.013
14.46	6.964
14.68	0.012
14.9	9.539
15.12	2.655
15.34	5.056
15.56	1.068
15.78	5.164
16	5.136
16.22	7.257
16.44	6.326
16.66	0.597
16.88	4.445
17.1	6.411
17.32	0.11
17.54	7.405
17.76	3.247
17.98	0.343
18.2	3.382
18.42	2.437
18.64	6.459
18.86	7.566
19.08	4.677
19.3	3.871
19.52	2.917
19.74	0.791
19.96	0.284
20.18	4.749
20.4	2.679
20.62	5.976
20.84	3.211
21.06	6.476
21.28	26.339
21.5	8.267
21.72	3.033
21.94	4.017
22.16	10.902
22.38	2.752
22.6	10.597
22.82	6.584
23.04	5.428
23.26	9.328
23.48	10.982
23.7	58.796
23.92	8.72
24.14	1.418
24.36	5.577
24.58	9.515
24.8	12.391
25.02	3.427
25.24	9.189
25.46	3.208
25.68	7.962
25.9	33.803
26.12	4.766
26.34	3.709
26.56	5.744
26.78	4.61
27	104.79
27.22	44.151
27.44	43.502
27.66	49.635
27.88	13.637
28.1	3.893
28.32	9.082
28.54	7.118
28.76	5.094
28.98	1.046
29.2	5.977
29.42	4.798
29.64	3.468
29.86	13.017
30.08	9.974
30.3	3.694
30.52	4.905
30.74	15.085
30.96	29.158
31.18	8.289
31.4	0.455
31.62	3.402
31.84	5.798
32.06	3.136
32.28	1.389
32.5	26.737
32.72	1.963
32.94	4.808
33.16	4.887
33.38	3.082
33.6	5.116
33.82	3.11
34.04	5.086
34.26	1.017
34.48	7.955
34.7	19.822
34.92	70.716
35.14	10.677
35.36	8.365
35.58	0.449
35.8	13.481
36.02	5.599
36.24	3.674
36.46	0.912
36.68	1.013
36.9	0.96
37.12	2.247
37.34	0.291
37.56	5.282
37.78	9.293
38	9.241
38.22	5.226
38.44	1.296
38.66	1.348
38.88	8.183
39.1	1.354
39.32	0.529
39.54	5.4
39.76	4.237
39.98	9.13
40.2	6.106
40.42	3.154
40.64	5.909
40.86	4.742
41.08	2.71
41.3	0.176
41.52	2.44
41.74	22.343
41.96	3.157
42.18	6.136
42.4	3.151
42.62	17.356
42.84	9.255
43.06	9.339
43.28	5.613
43.5	6.702
43.72	3.938
43.94	10.087
44.16	6.199
44.38	3.271
44.6	9.391
44.82	0.57
45.04	0.635
45.26	14.482
45.48	7.454
45.7	1.383
45.92	4.278
46.14	32.052
46.36	7.951
46.58	4.895
46.8	3.88
47.02	4.944
47.24	6.772
47.46	6.857
47.68	12.897
47.9	8.021
48.12	4.885
48.34	2.609
48.56	1.611
48.78	1.538
49	0.579
49.22	12.469
49.44	4.172
49.66	4.059
49.88	0.844
50.1	5.574
50.32	0.416
50.54	9.389
50.76	14.398
50.98	17.72
51.2	4.873
51.42	1.003
51.64	8.983
51.86	3.293
52.08	2.54
52.3	5.76
52.52	5.914
52.74	4.169
52.96	0.519
53.18	3.643
53.4	8.554
53.62	1.503
53.84	4.572
54.06	5.708
54.28	9.631
54.5	2.705
54.72	1.639
54.94	4.824
55.16	0.785
55.38	1.498
55.6	8.381
55.82	5.296
56.04	2.344
56.26	0.654
56.48	6.301
56.7	6.446
56.92	3.406
57.14	2.369
57.36	3.248
57.58	10.147
57.8	3.204
58.02	10.218
58.24	6.323
58.46	3.349
58.68	8.369
58.9	4.435
59.12	3.405
59.34	5.623
59.56	8.639
59.78	0.649
60	3.657
60.22	4.621
60.44	2.557
60.66	15.488
60.88	5.454
61.1	5.385
61.32	9.564
61.54	1.22
61.76	4.262
61.98	26.191
62.2	1.066
62.42	3.013
62.64	3.888
62.86	4.778
63.08	7.634
63.3	7.458
63.52	3.308
63.74	0.096
63.96	0.648
64.18	1.419
64.4	11.334
64.62	6.238
64.84	10.233
65.06	0.63
65.28	0.763
65.5	6.829
65.72	7.971
65.94	2.368
66.16	5.521
66.38	0.65
66.6	11.757
66.82	4.857
67.04	2.077
67.26	0.985
67.48	0.171
67.7	1.818
67.92	7.862
68.14	1.969
68.36	6.795
68.58	1.962
68.8	0.321
69.02	6.455
69.24	3.587
69.46	0.602
69.68	3.762
69.9	0.146
70.12	6.09
70.34	1.04
70.56	1.98
70.78	2.71
71	1.513
71.22	4.052
71.44	2.801
71.66	2.584
71.88	3.322
72.1	4.02
72.32	2.797
72.54	7.393
72.76	8.322
72.98	2.1
73.2	2.004
73.42	3.059
73.64	10.263
73.86	2.362
74.08	6.346
74.3	6.847
74.52	1.971
74.74	0.943
74.96	8.213
75.18	4.302
75.4	0.538
75.62	4.729
75.84	0.038
76.06	0.068
76.28	5.113
76.5	1.161
76.72	4.243
76.94	3.462
77.16	2.642
77.38	6.754
77.6	0.154
77.82	0.94
78.04	1.103
78.26	0.02
78.48	0.994
78.7	5.928
78.92	6.892
79.14	3.769
79.36	7.645
79.58	6.533
79.8	2.557
80.02	3.606
80.24	1.658
80.46	1.64
80.68	7.692
80.9	5.687
81.12	2.714
81.34	5.661
81.56	3.673
81.78	5.681
82	3.871
82.22	2.796
82.44	4.627
82.66	3.422
82.88	2.324
83.1	1.487
83.32	1.404
83.54	0.322
83.76	5.26
83.98	3.193
84.2	5.246
84.42	3.152
84.64	2.234
84.86	7.356
85.08	5.453
85.3	3.816
85.52	3.621
85.74	1.825
85.96	7.897
86.18	0.048
86.4	1.927
86.62	1.896
86.84	3.798
87.06	2.714
87.28	1.643
87.5	3.573
87.72	7.287
87.94	4.412
88.16	5.31
88.38	2.309
88.6	4.353
88.82	4.33
89.04	5.429
89.26	7.451
89.48	5.52
89.7	3.283
89.92	0.126
