Measurement: Powder, Xray Data XY Processed
Mineral: Sapphirine
Rruff sample: R060556
Ideal chemistry: Mg_4_(Mg_3_Al_9_)O_4_[Si_3_Al_9_O_36_]
Locality: unknown
Source: Gemological Institute of America
Description: Dark blue massive
Diffraction sample description: Powder
Measured chemistry: Mg_4_(Mg_3.18_Al_8.52_Fe^2+^_0.32_)O_4_(Si_3.42_Al_8.58_O_36_)
Cell parameters: a: 11.2767(4) b: 14.4241(6) c: 9.936(1) alpha: 90. beta: 125.414(3) gamma: 90. volume: 1317.1(1) crystal system: monoclinic
x	intensity
5	0
5.22	7.89488
5.44	5.46627
5.66	12.9765
5.88	6.43234
6.1	2.71023
6.32	1.72079
6.54	8.66426
6.76	9.74105
6.98	10.9421
7.2	12.5643
7.42	5.14674
7.64	13.5662
7.86	5.32806
8.08	20.9123
8.3	18.471
8.52	4.73938
8.74	9.18466
8.96	6.80954
9.18	5.66548
9.4	10.2397
9.62	21.4177
9.84	7.04274
10.06	14.3991
10.28	0.846912
10.5	6.52004
10.72	5.99602
10.94	0.711376
11.16	13.2085
11.38	4.70553
11.6	8.91403
11.82	1.22837
12.04	7.57037
12.26	8.24605
12.48	9.33534
12.7	1.48423
12.92	4.54262
13.14	4.4776
13.36	10.3728
13.58	10.5613
13.8	16.7591
14.02	3.90657
14.24	7.25361
14.46	11.6205
14.68	14.7871
14.9	8.03513
15.12	2.65506
15.34	4.00322
15.56	7.32075
15.78	0.758668
16	4.2067
16.22	7.54464
16.44	13.1948
16.66	12.6255
16.88	9.74302
17.1	11.1282
17.32	4.35413
17.54	4.40842
17.76	7.61888
17.98	9.70759
18.2	6.71894
18.42	6.61726
18.64	1.75328
18.86	8.25943
19.08	2.95546
19.3	13.8207
19.52	8.88374
19.74	11.8497
19.96	8.74002
20.18	8.67677
20.4	10.6639
20.62	0.918865
20.84	1.27356
21.06	8.17965
21.28	8.35603
21.5	6.44105
21.72	1.65908
21.94	2.48806
22.16	1.5249
22.38	1.51825
22.6	3.51971
22.82	7.78116
23.04	9.79587
23.26	1.5728
23.48	0.702779
23.7	1.27956
23.92	1.28912
24.14	6.13925
24.36	2.1021
24.58	3.19393
24.8	13.242
25.02	4.55718
25.24	9.39236
25.46	6.12897
25.68	6.18029
25.9	8.13227
26.12	5.06473
26.34	3.9555
26.56	10.8596
26.78	12.8642
27	8.66845
27.22	0.657465
27.44	11.5382
27.66	3.50417
27.88	3.49368
28.1	8.68367
28.32	4.81919
28.54	10.984
28.76	4.95187
28.98	6.94097
29.2	1.71556
29.42	9.80535
29.64	8.54933
29.86	92.2186
30.08	23.5957
30.3	7.35759
30.52	12.977
30.74	4.75536
30.96	10.0597
31.18	11.2155
31.4	12.0901
31.62	100.917
31.84	8.69741
32.06	2.55025
32.28	1.6895
32.5	25.1777
32.72	6.8845
32.94	8.63477
33.16	0.436073
33.38	4.47758
33.6	11.4313
33.82	53.2275
34.04	12.0124
34.26	9.21657
34.48	32.1725
34.7	3.88359
34.92	69.6684
35.14	11.9337
35.36	3.12536
35.58	11.1406
35.8	6.25724
36.02	11.0533
36.24	5.6178
36.46	10.8659
36.68	140.499
36.9	20.595
37.12	8.60992
37.34	4.80548
37.56	14.6855
37.78	21.6294
38	2.89828
38.22	2.03277
38.44	44.2767
38.66	25.8215
38.88	27.0125
39.1	5.37966
39.32	18.6096
39.54	0.124453
39.76	4.49114
39.98	1.94707
40.2	12.2944
40.42	7.23634
40.64	3.47787
40.86	2.3123
41.08	2.62729
41.3	4.42734
41.52	9.55667
41.74	8.50208
41.96	3.58007
42.18	7.42205
42.4	7.05341
42.62	26.2168
42.84	4.34831
43.06	2.31895
43.28	9.58685
43.5	9.04351
43.72	9.17657
43.94	6.07824
44.16	7.1671
44.38	8.75736
44.6	7.21309
44.82	23.5898
45.04	88.5329
45.26	8.6218
45.48	6.64549
45.7	1.3403
45.92	3.72453
46.14	4.36825
46.36	12.5129
46.58	17.4351
46.8	3.39527
47.02	1.95067
47.24	1.27865
47.46	5.85242
47.68	3.01641
47.9	28.0262
48.12	25.1043
48.34	2.26863
48.56	3.34723
48.78	3.27611
49	3.37162
49.22	6.6318
49.44	4.19167
49.66	5.23041
49.88	9.01224
50.1	5.84395
50.32	4.86465
50.54	10.594
50.76	0.425048
50.98	2.23584
51.2	4.26801
51.42	7.20105
51.64	1.02086
51.86	2.86797
52.08	10.0517
52.3	0.349338
52.52	9.46692
52.74	0.547694
52.96	8.68839
53.18	2.82431
53.4	3.23609
53.62	3.34356
53.84	12.4505
54.06	6.34325
54.28	5.06815
54.5	5.78968
54.72	6.59279
54.94	4.78498
55.16	3.64258
55.38	5.49474
55.6	2.35499
55.82	11.9448
56.04	2.2061
56.26	15.9513
56.48	2.81989
56.7	1.98905
56.92	7.87068
57.14	5.90209
57.36	7.4195
57.58	12.3495
57.8	15.4882
58.02	5.90963
58.24	7.01541
58.46	10.8593
58.68	21.4453
58.9	4.4206
59.12	1.84745
59.34	4.0581
59.56	7.96137
59.78	12.1321
60	24.2698
60.22	23.197
60.44	73.3017
60.66	39.4864
60.88	9.76265
61.1	9.88484
61.32	8.01589
61.54	6.10274
61.76	4.33066
61.98	6.39391
62.2	3.29524
62.42	13.4749
62.64	13.3188
62.86	9.32637
63.08	0.972043
63.3	1.11269
63.52	4.00706
63.74	0.738218
63.96	3.41855
64.18	6.32069
64.4	1.97306
64.62	25.5636
64.84	35.8401
65.06	11.2195
65.28	4.99765
65.5	1.78529
65.72	68.2146
65.94	42.7186
66.16	12.2693
66.38	72.6088
66.6	18.5136
66.82	5.86606
67.04	1.29223
67.26	1.76542
67.48	2.04634
67.7	13.4225
67.92	16.1434
68.14	6.47848
68.36	2.01486
68.58	5.88989
68.8	9.0712
69.02	5.2382
69.24	11.6852
69.46	7.74508
69.68	5.72635
69.9	14.0732
70.12	3.25711
70.34	10.0015
70.56	11.1395
70.78	2.40774
71	6.59441
71.22	2.64839
71.44	4.70896
71.66	5.41896
71.88	10.4842
72.1	9.40168
72.32	24.8585
72.54	10.9749
72.76	10.9801
72.98	7.86744
73.2	4.53444
73.42	10.3946
73.64	3.28583
73.86	4.15461
74.08	0.95917
74.3	32.1105
74.52	17.1018
74.74	5.44329
74.96	5.47864
75.18	6.36944
75.4	1.44046
75.62	0.509264
75.84	5.68957
76.06	8.98646
76.28	4.11069
76.5	2.49557
76.72	7.7482
76.94	14.8523
77.16	12.0568
77.38	8.97359
77.6	3.08207
77.82	0.960851
78.04	3.78727
78.26	7.68794
78.48	2.43201
78.7	7.29598
78.92	13.2622
79.14	5.8782
79.36	13.879
79.58	4.75231
79.8	10.486
80.02	5.40703
80.24	9.54309
80.46	6.60121
80.68	12.659
80.9	11.7573
81.12	3.92835
81.34	2.67204
81.56	6.69746
81.78	0.415542
82	8.95136
82.22	1.96958
82.44	2.93336
82.66	4.86883
82.88	9.79299
83.1	3.83136
83.32	1.71596
83.54	3.60198
83.76	5.42331
83.98	2.4383
84.2	7.41453
84.42	10.1754
84.64	18.1764
84.86	6.06645
85.08	2.46885
85.3	0.558815
85.52	0.796216
85.74	6.74648
85.96	4.02527
86.18	3.35516
86.4	2.34497
86.62	5.22052
86.84	2.21916
87.06	9.32251
87.28	13.3043
87.5	4.91539
87.72	13.7201
87.94	5.60087
88.16	2.42023
88.38	0.656183
88.6	4.7219
88.82	5.758
89.04	9.98901
89.26	6.1269
89.48	9.58236
89.7	6.35825
89.92	0.169835
