Measurement: Powder, Xray Data XY Processed
Mineral: Sassolite
Rruff sample: R060224
Ideal chemistry: B(OH)_3_
Locality: Tuscany, Italy
Source: Marcus Origlieri
Description: Colorless micaceous aggregate
Diffraction sample description: Powder, cell parameters are from single crystal
Cell parameters: a: 7.0(1) b: 7.0(1) c: 6.6(1) alpha: 92.2(5) beta: 101.7(5) gamma: 120.1(3) volume: 269(2) crystal system: triclinic
x	intensity
5	0
5.22	11.37
5.44	20.095
5.66	11.221
5.88	15.696
6.1	14.791
6.32	20.108
6.54	6.735
6.76	13.312
6.98	9.134
7.2	19.455
7.42	13.502
7.64	12.453
7.86	1.435
8.08	5.745
8.3	3.842
8.52	9.831
8.74	15.764
8.96	35.125
9.18	1.893
9.4	7.537
9.62	6.188
9.84	10.81
10.06	19.926
10.28	21.667
10.5	17.539
10.72	6.417
10.94	18.53
11.16	14.13
11.38	3.127
11.6	18.236
11.82	12.445
12.04	27.971
12.26	11.681
12.48	8.566
12.7	16.582
12.92	16.019
13.14	13.247
13.36	13.396
13.58	18.6
13.8	4.537
14.02	19.696
14.24	8.621
14.46	9.426
14.68	86.34
14.9	55.546
15.12	19.3
15.34	43.799
15.56	10.204
15.78	1.171
16	8.055
16.22	4.499
16.44	23.282
16.66	7.129
16.88	16.816
17.1	18.27
17.32	9.035
17.54	1.586
17.76	13.358
17.98	0.391
18.2	12.531
18.42	13.344
18.64	1.897
18.86	10.438
19.08	13.562
19.3	4.953
19.52	13.298
19.74	3.856
19.96	17.345
20.18	10.889
20.4	5.353
20.62	5.252
20.84	0.019
21.06	23.846
21.28	34.307
21.5	28.821
21.72	7.491
21.94	12.894
22.16	3.645
22.38	5.067
22.6	15.518
22.82	7.292
23.04	11.175
23.26	17.556
23.48	34.669
23.7	13.786
23.92	2.308
24.14	14.427
24.36	5.098
24.58	0.436
24.8	27.924
25.02	8.348
25.24	12.339
25.46	19.241
25.68	17.336
25.9	35.411
26.12	3.648
26.34	7.098
26.56	2.235
26.78	11.223
27	8.685
27.22	15.269
27.44	29.717
27.66	82.204
27.88	331.966
28.1	630.993
28.32	79.23
28.54	0.698
28.76	8.698
28.98	12.098
29.2	5.494
29.42	7.512
29.64	14.706
29.86	17.843
30.08	1.31
30.3	14.555
30.52	11.918
30.74	9.405
30.96	25.989
31.18	12.431
31.4	5.02
31.62	20.974
31.84	107.336
32.06	22.228
32.28	48.629
32.5	3.499
32.72	9.903
32.94	61.11
33.16	3.611
33.38	11.707
33.6	5.424
33.82	4.255
34.04	23.746
34.26	3.799
34.48	5.141
34.7	7.401
34.92	9.923
35.14	15.646
35.36	1.381
35.58	6.384
35.8	4.858
36.02	12.257
36.24	7.065
36.46	8.345
36.68	3.067
36.9	3.857
37.12	5.452
37.34	5.483
37.56	9.165
37.78	16.869
38	9.615
38.22	4.636
38.44	11.103
38.66	16.549
38.88	0.188
39.1	9.987
39.32	23.096
39.54	22.303
39.76	16.037
39.98	17.478
40.2	22.594
40.42	26.751
40.64	18.236
40.86	14.367
41.08	9.564
41.3	7.07
41.52	3.728
41.74	17.265
41.96	14.535
42.18	14.809
42.4	8.053
42.62	13.11
42.84	10.071
43.06	4.691
43.28	1.815
43.5	14.058
43.72	6.297
43.94	5.601
44.16	5.016
44.38	6.962
44.6	5.21
44.82	25.571
45.04	6.38
45.26	5.809
45.48	10.649
45.7	8.083
45.92	6.511
46.14	23.001
46.36	9.557
46.58	13.664
46.8	18.414
47.02	7.545
47.24	13.652
47.46	9.144
47.68	8.899
47.9	8.108
48.12	10.217
48.34	0.253
48.56	6.189
48.78	9.301
49	6.494
49.22	4.693
49.44	7.911
49.66	26.563
49.88	1.388
50.1	7.353
50.32	6.482
50.54	16.747
50.76	8.173
50.98	6.555
51.2	14.288
51.42	11.456
51.64	8.453
51.86	14.657
52.08	9.237
52.3	15.266
52.52	11.418
52.74	7.375
52.96	6.416
53.18	7.134
53.4	5.914
53.62	11.72
53.84	8.734
54.06	5.872
54.28	7.817
54.5	7.795
54.72	5.378
54.94	2.086
55.16	7.944
55.38	9.881
55.6	12.863
55.82	8.052
56.04	12.005
56.26	11.099
56.48	10.024
56.7	8.87
56.92	4.662
57.14	4.666
57.36	7.043
57.58	8.349
57.8	12.544
58.02	19.487
58.24	7.291
58.46	15.032
58.68	3.202
58.9	5.373
59.12	3.719
59.34	0.701
59.56	19.489
59.78	0.317
60	6.121
60.22	10.306
60.44	2.59
60.66	5.363
60.88	8.295
61.1	6.4
61.32	5.437
61.54	6.484
61.76	6.217
61.98	11.267
62.2	1.435
62.42	11.312
62.64	9.52
62.86	7.796
63.08	9.638
63.3	2.468
63.52	2.543
63.74	6.668
63.96	3.986
64.18	14.971
64.4	0.305
64.62	8.419
64.84	3.445
65.06	10.309
65.28	3.603
65.5	11.796
65.72	1.94
65.94	4.082
66.16	11.067
66.38	6.629
66.6	10.757
66.82	9.832
67.04	6.79
67.26	1.889
67.48	7.893
67.7	7.919
67.92	6.008
68.14	7.532
68.36	14.632
68.58	13.72
68.8	3.587
69.02	9.66
69.24	12.523
69.46	2.49
69.68	13.423
69.9	7.494
70.12	12.668
70.34	5.712
70.56	7.213
70.78	0.914
71	6.889
71.22	0.627
71.44	4.593
71.66	3.724
71.88	0.118
72.1	4.962
72.32	3.988
72.54	16.636
72.76	0.322
72.98	10.756
73.2	2.668
73.42	0.678
73.64	7.796
73.86	4.233
74.08	10.018
74.3	3.962
74.52	2.167
74.74	6.289
74.96	0.549
75.18	3.41
75.4	5.332
75.62	4.327
75.84	8.307
76.06	5.977
76.28	7.834
76.5	2.188
76.72	3.227
76.94	7.094
77.16	7.864
77.38	4.835
77.6	0.115
77.82	4.955
78.04	4.976
78.26	15.409
78.48	16.558
78.7	5.316
78.92	1.479
79.14	7.323
79.36	5.491
79.58	5.46
79.8	5.506
80.02	2.575
80.24	6.852
80.46	5.171
80.68	3.23
80.9	10.085
81.12	2.132
81.34	4.146
81.56	6.123
81.78	7.895
82	10.049
82.22	6.075
82.44	7.934
82.66	6.662
82.88	12.617
83.1	8.303
83.32	6.353
83.54	7.446
83.76	24.232
83.98	1.482
84.2	5.633
84.42	5.461
84.64	7.417
84.86	7.652
85.08	8.726
85.3	4.69
85.52	10.772
85.74	2.891
85.96	7.839
86.18	9.947
86.4	14.686
86.62	1.511
86.84	6.578
87.06	6.528
87.28	10.346
87.5	10.213
87.72	5.94
87.94	9.712
88.16	2.506
88.38	1.542
88.6	4.59
88.82	7.964
89.04	7.082
89.26	12.277
89.48	2.998
89.7	0.283
89.92	11.569
