Measurement: Powder, Xray Data XY Processed
Mineral: Satterlyite
Rruff sample: R060810
Ideal chemistry: (Fe^2+^,Mg,Fe^3+^)_12_(PO_3_OH)(PO_4_)_5_(OH,O)_6_
Locality: Big Fish River Area, Yukon Territory, Canada
Source: Michael Scott
Description: Yellowish-brown gemmy irregularly shaped coarse grains
Diffraction sample description: Powder
Measured chemistry: (Fe^2+^_7.95_Mg_2.25_Fe^3+^_0.66_Na_0.66_Mn_0.48_)_Σ=12_(P_1.00_O_3_OH)(P_1.00_O_4_)_5_((OH)_5.00_O_1.00_)_Σ=6_; OH estimated by charge balance
Cell parameters: a: 11.3594(3) b: 11.3594(3) c: 5.0362(4) alpha: 90 beta: 90 gamma: 120 volume: 562.79(4) crystal system: hexagonal
x	intensity
5	0
5.22	18.2167
5.44	19.4893
5.66	19.1364
5.88	35.8285
6.1	7.36656
6.32	5.00686
6.54	23.8404
6.76	19.1378
6.98	11.6589
7.2	19.037
7.42	43.3624
7.64	10.6024
7.86	1.31868
8.08	6.23616
8.3	27.8366
8.52	25.8373
8.74	19.69
8.96	2.20422
9.18	25.3998
9.4	19.224
9.62	42.3195
9.84	30.5402
10.06	1.93054
10.28	5.81657
10.5	10.0747
10.72	26.8034
10.94	16.4428
11.16	17.5949
11.38	1.79831
11.6	36.3888
11.82	9.40517
12.04	9.89564
12.26	21.4478
12.48	29.5354
12.7	12.1134
12.92	15.0114
13.14	18.185
13.36	26.9007
13.58	35.0661
13.8	20.5769
14.02	32.2244
14.24	18.2238
14.46	17.5042
14.68	17.3397
14.9	16.3697
15.12	31.005
15.34	18.0821
15.56	11.6895
15.78	11.0956
16	9.68635
16.22	19.4711
16.44	4.62191
16.66	21.6678
16.88	9.02246
17.1	18.5246
17.32	28.4985
17.54	2.87444
17.76	10.1717
17.98	17.0874
18.2	10.4832
18.42	16.3216
18.64	25.5015
18.86	21.6169
19.08	10.0453
19.3	36.7536
19.52	2.70249
19.74	39.2665
19.96	10.6781
20.18	15.5782
20.4	7.77036
20.62	14.1623
20.84	23.6237
21.06	8.81671
21.28	8.31662
21.5	25.2996
21.72	38.1594
21.94	24.6596
22.16	16.8744
22.38	19.8853
22.6	3.39357
22.82	13.1443
23.04	13.7723
23.26	39.1989
23.48	25.0169
23.7	21.6038
23.92	47.0219
24.14	1.43986
24.36	9.37592
24.58	19.6682
24.8	0.474304
25.02	0.81395
25.24	24.2735
25.46	0.935684
25.68	23.4705
25.9	24.6184
26.12	8.46945
26.34	4.03922
26.56	15.0402
26.78	28.0259
27	7.93423
27.22	33.8116
27.44	7.18455
27.66	19.2924
27.88	9.86344
28.1	25.7831
28.32	0.614532
28.54	32.3023
28.76	4.20161
28.98	13.3241
29.2	9.96383
29.42	6.03391
29.64	25.4081
29.86	70.0076
30.08	17.2538
30.3	21.8393
30.52	21.7207
30.74	6.80447
30.96	18.378
31.18	21.4513
31.4	28.2027
31.62	53.5808
31.84	31.4043
32.06	23.4384
32.28	9.65799
32.5	25.2005
32.72	32.123
32.94	13.3031
33.16	18.2982
33.38	24.376
33.6	11.2223
33.82	12.6584
34.04	28.6214
34.26	13.549
34.48	15.0733
34.7	23.8565
34.92	1.99732
35.14	28.6136
35.36	29.2301
35.58	6.78111
35.8	28.2882
36.02	10.1828
36.24	43.1268
36.46	39.9689
36.68	7.14545
36.9	10.9682
37.12	6.72742
37.34	4.15823
37.56	21.5763
37.78	21.8137
38	3.29559
38.22	9.12793
38.44	13.668
38.66	15.9779
38.88	0.247757
39.1	34.8481
39.32	12.6568
39.54	32.6826
39.76	14.8356
39.98	2.5551
40.2	57.183
40.42	16.8951
40.64	19.3861
40.86	48.344
41.08	11.4813
41.3	20.368
41.52	17.7079
41.74	4.84239
41.96	22.7403
42.18	18.4912
42.4	2.98981
42.62	25.6269
42.84	41.3403
43.06	23.0809
43.28	36.4439
43.5	13.1707
43.72	10.2782
43.94	31.2022
44.16	19.4601
44.38	3.8619
44.6	7.87176
44.82	11.0738
45.04	26.4847
45.26	20.8144
45.48	16.9459
45.7	34.3819
45.92	44.7611
46.14	23.713
46.36	21.9591
46.58	24.4721
46.8	10.17
47.02	17.2343
47.24	15.9592
47.46	4.02736
47.68	24.1005
47.9	25.771
48.12	17.0076
48.34	27.0362
48.56	21.7367
48.78	19.8287
49	12.3954
49.22	9.6099
49.44	20.4761
49.66	31.1468
49.88	25.5763
50.1	13.5236
50.32	26.0367
50.54	14.1466
50.76	25.1437
50.98	36.3122
51.2	6.75568
51.42	8.52698
51.64	36.1544
51.86	30.3472
52.08	35.1055
52.3	23.2982
52.52	6.10806
52.74	19.8946
52.96	11.9159
53.18	17.7203
53.4	8.79327
53.62	8.68276
53.84	5.68999
54.06	28.5746
54.28	15.4085
54.5	5.79371
54.72	20.8815
54.94	5.67449
55.16	10.1255
55.38	9.33147
55.6	6.57576
55.82	1.15094
56.04	58.7624
56.26	35.6651
56.48	24.0128
56.7	19.4296
56.92	36.3246
57.14	18.639
57.36	15.8169
57.58	13.9235
57.8	3.53728
58.02	19.8644
58.24	0.315262
58.46	4.08761
58.68	20.7204
58.9	11.0178
59.12	7.97692
59.34	11.6467
59.56	13.8527
59.78	15.1067
60	22.7794
60.22	17.9469
60.44	23.8098
60.66	26.1145
60.88	17.9613
61.1	11.2188
61.32	19.6518
61.54	19.2303
61.76	4.54923
61.98	37.6193
62.2	8.29075
62.42	18.4748
62.64	0.972389
62.86	43.4498
63.08	18.2711
63.3	4.74915
63.52	6.03429
63.74	20.487
63.96	8.12416
64.18	3.61961
64.4	30.2367
64.62	13.5356
64.84	6.20969
65.06	14.2075
65.28	18.9156
65.5	27.2213
65.72	16.4724
65.94	12.1228
66.16	21.7383
66.38	31.8387
66.6	21.0181
66.82	9.13045
67.04	17.0027
67.26	12.8071
67.48	2.26409
67.7	10.6502
67.92	12.6152
68.14	16.5306
68.36	1.11509
68.58	12.2027
68.8	23.8993
69.02	36.0113
69.24	18.5276
69.46	9.87692
69.68	19.4247
69.9	15.4794
70.12	11.9198
70.34	20.5844
70.56	5.0231
70.78	18.6178
71	7.39375
71.22	15.4791
71.44	1.47697
71.66	38.7838
71.88	22.5757
72.1	24.4566
72.32	11.1469
72.54	12.8306
72.76	8.94643
72.98	4.27893
73.2	25.3208
73.42	36.12
73.64	17.9208
73.86	4.53233
74.08	19.0571
74.3	2.83068
74.52	8.88615
74.74	13.9349
74.96	32.9744
75.18	5.13173
75.4	20.4055
75.62	40.3358
75.84	22.89
76.06	9.14002
76.28	18.1508
76.5	8.54025
76.72	2.51106
76.94	24.5521
77.16	20.0993
77.38	21.1585
77.6	17.6612
77.82	18.0046
78.04	5.45535
78.26	32.7716
78.48	21.6875
78.7	19.4157
78.92	12.63
79.14	18.1588
79.36	23.3482
79.58	17.7616
79.8	3.48362
80.02	18.1707
80.24	22.7883
80.46	2.93961
80.68	3.42078
80.9	12.9121
81.12	12.2113
81.34	15.5416
81.56	14.2618
81.78	12.4657
82	9.75041
82.22	17.1142
82.44	26.9983
82.66	23.8172
82.88	2.27438
83.1	5.89278
83.32	33.7769
83.54	16.4217
83.76	15.6157
83.98	16.501
84.2	18.5931
84.42	3.65383
84.64	21.317
84.86	5.85168
85.08	14.1475
85.3	10.0275
85.52	11.7092
85.74	21.7475
85.96	4.00745
86.18	15.4135
86.4	3.93719
86.62	36.7664
86.84	5.75596
87.06	6.90932
87.28	3.63902
87.5	36.4598
87.72	14.6896
87.94	15.6775
88.16	13.922
88.38	24.5796
88.6	1.64562
88.82	10.3689
89.04	36.0781
89.26	41.5639
89.48	7.54366
89.7	0.031075
89.92	20.0693
