Measurement: Powder, Xray Data XY Processed
Mineral: Scheelite
Rruff sample: R040172
Ideal chemistry: CaW^6+^O_4_
Locality: Sonora, Mexico
Source: University of Arizona Mineral Museum
Description: Colorless water worn single crystal
Diffraction sample description: Powder
Measured chemistry: Ca_1.01_W_1.00_O_4_
Cell parameters: a: 5.24343(8) b: 5.24343(8) c: 11.3747(2) alpha: 90. beta: 90. gamma: 90. volume: 312.734(10) crystal system: tetragonal
x	intensity
5	0
5.22	8.53774
5.44	4.2591
5.66	4.16305
5.88	10.4522
6.1	13.9326
6.32	20.7795
6.54	11.6432
6.76	22.1917
6.98	2.76009
7.2	7.79429
7.42	6.87168
7.64	1.82639
7.86	3.53365
8.08	0.65439
8.3	9.83323
8.52	0.799915
8.74	8.3745
8.96	5.31824
9.18	7.32217
9.4	2.57828
9.62	5.62631
9.84	6.65397
10.06	2.62828
10.28	5.57774
10.5	9.97119
10.72	3.75798
10.94	4.84643
11.16	5.99415
11.38	7.8553
11.6	5.87229
11.82	4.68619
12.04	3.67312
12.26	5.72609
12.48	7.87334
12.7	8.74569
12.92	7.54005
13.14	6.94544
13.36	0.871112
13.58	2.07721
13.8	5.28912
14.02	5.41831
14.24	6.67858
14.46	5.01774
14.68	10.0384
14.9	10.8953
15.12	1.92192
15.34	4.8528
15.56	6.58283
15.78	11.3463
16	3.44447
16.22	6.36249
16.44	3.15085
16.66	1.77045
16.88	26.9793
17.1	3.74595
17.32	5.63539
17.54	0.095006
17.76	0.324817
17.98	9.62832
18.2	11.1453
18.42	41.3899
18.64	1125.25
18.86	77.4882
19.08	10.4399
19.3	6.67955
19.52	11.1638
19.74	2.65037
19.96	11.4731
20.18	9.05147
20.4	7.98193
20.62	0.565455
20.84	16.1229
21.06	3.21337
21.28	8.61675
21.5	6.90115
21.72	16.6088
21.94	7.68167
22.16	10.9903
22.38	11.7549
22.6	6.77794
22.82	5.58116
23.04	7.65728
23.26	5.67177
23.48	4.62821
23.7	2.27712
23.92	0.8183
24.14	3.87406
24.36	6.2645
24.58	12.1136
24.8	3.04946
25.02	5.9855
25.24	5.07278
25.46	2.12747
25.68	9.91421
25.9	19.047
26.12	11.2373
26.34	5.7232
26.56	0.471808
26.78	7.3419
27	9.41254
27.22	2.4124
27.44	10.2611
27.66	2.81482
27.88	8.34513
28.1	9.11781
28.32	24.6027
28.54	127.468
28.76	2480.82
28.98	236.941
29.2	149.769
29.42	24.4104
29.64	15.7868
29.86	4.35674
30.08	2.87674
30.3	6.04862
30.52	2.72159
30.74	10.4568
30.96	9.33975
31.18	18.0314
31.4	88.7619
31.62	63.9858
31.84	11.2383
32.06	9.78407
32.28	3.0844
32.5	4.42632
32.72	9.53289
32.94	8.57996
33.16	12.5291
33.38	7.29658
33.6	0.149885
33.82	15.1016
34.04	26.2403
34.26	221.126
34.48	13.1936
34.7	6.53494
34.92	7.96429
35.14	6.4222
35.36	13.1412
35.58	5.78508
35.8	7.28191
36.02	12.6532
36.24	4.50402
36.46	7.64852
36.68	8.8025
36.9	1.59658
37.12	7.94342
37.34	0.310769
37.56	1.37181
37.78	8.72351
38	2.1175
38.22	1.6297
38.44	1.807
38.66	1.2845
38.88	12.63
39.1	39.4832
39.32	186.385
39.54	19.5329
39.76	6.45082
39.98	48.1957
40.2	11.6601
40.42	3.0578
40.64	1.56955
40.86	9.18514
41.08	0.195352
41.3	4.15566
41.52	6.64793
41.74	3.79218
41.96	2.56823
42.18	5.5187
42.4	12.025
42.62	12.0131
42.84	1.53879
43.06	12.2859
43.28	26.2952
43.5	37.1177
43.72	1.1658
43.94	7.14286
44.16	11.7741
44.38	7.48788
44.6	5.13023
44.82	0.787182
45.04	4.81515
45.26	13.9519
45.48	175.523
45.7	26.6987
45.92	1.20859
46.14	2.54826
46.36	7.76435
46.58	17.5565
46.8	31.5893
47.02	84.7824
47.24	293.897
47.46	52.5179
47.68	14.3613
47.9	0.616584
48.12	1.56668
48.34	0.761483
48.56	6.99346
48.78	17.456
49	17.7464
49.22	93.1759
49.44	23.6327
49.66	7.12657
49.88	4.74585
50.1	4.44777
50.32	0.987259
50.54	10.4152
50.76	2.26252
50.98	3.94407
51.2	9.54092
51.42	0.377508
51.64	3.3611
51.86	13.0115
52.08	7.31454
52.3	10.0904
52.52	3.52132
52.74	0.906047
52.96	18.4206
53.18	23.0456
53.4	4.20872
53.62	2.94222
53.84	16.5058
54.06	16.5714
54.28	104.947
54.5	203.963
54.72	18.6887
54.94	4.84504
55.16	9.04067
55.38	7.14723
55.6	11.0838
55.82	10.2982
56.04	20.093
56.26	39.7736
56.48	77.0266
56.7	3.86104
56.92	6.85618
57.14	12.3833
57.36	9.81986
57.58	14.6061
57.8	86.5786
58.02	181.397
58.24	59.8454
58.46	14.8182
58.68	6.97736
58.9	7.26444
59.12	8.75866
59.34	14.7069
59.56	138.509
59.78	37.378
60	10.1871
60.22	7.5414
60.44	4.88707
60.66	3.67413
60.88	0.35686
61.1	7.97666
61.32	12.521
61.54	11.1599
61.76	13.0578
61.98	1.14552
62.2	5.31649
62.42	7.27458
62.64	9.70152
62.86	7.45646
63.08	2.30784
63.3	7.14501
63.52	3.92271
63.74	0.3453
63.96	8.14898
64.18	4.81137
64.4	4.52315
64.62	69.1628
64.84	19.771
65.06	6.1559
65.28	5.11957
65.5	13.2386
65.72	15.794
65.94	6.90674
66.16	8.1426
66.38	7.27633
66.6	4.49084
66.82	7.65483
67.04	5.94292
67.26	6.29191
67.48	19.3841
67.7	13.2857
67.92	8.05081
68.14	1.42112
68.36	7.53355
68.58	3.43449
68.8	5.42561
69.02	17.5531
69.24	19.4287
69.46	13.1373
69.68	4.76278
69.9	1.48824
70.12	8.73845
70.34	8.7287
70.56	28.6815
70.78	20.6628
71	0.325859
71.22	4.55435
71.44	1.47466
71.66	11.967
71.88	10.1747
72.1	19.673
72.32	12.086
72.54	8.49687
72.76	3.69158
72.98	8.81517
73.2	8.1918
73.42	1.28683
73.64	0.16646
73.86	4.0503
74.08	0.245962
74.3	7.49952
74.52	5.59028
74.74	4.49295
74.96	6.13197
75.18	26.2901
75.4	4.47833
75.62	5.52585
75.84	19.0133
76.06	53.0376
76.28	155.287
76.5	86.3818
76.72	10.59
76.94	6.0339
77.16	4.46315
77.38	1.71766
77.6	17.2342
77.82	9.62325
78.04	9.83947
78.26	11.1146
78.48	6.85336
78.7	3.27119
78.92	2.51355
79.14	18.6972
79.36	41.4962
79.58	46.4062
79.8	2.90058
80.02	5.50953
80.24	2.67058
80.46	6.05883
80.68	80.1621
80.9	45.3068
81.12	2.43199
81.34	2.3429
81.56	7.74834
81.78	0.62926
82	7.95216
82.22	42.4815
82.44	40.9083
82.66	6.56251
82.88	0.89312
83.1	4.27056
83.32	1.83083
83.54	7.18156
83.76	8.44851
83.98	9.60766
84.2	7.67645
84.42	2.68915
84.64	5.40238
84.86	4.00337
85.08	7.60349
85.3	4.07755
85.52	6.81729
85.74	0.183254
85.96	3.71656
86.18	60.6436
86.4	48.4111
86.62	4.06176
86.84	7.8042
87.06	3.79999
87.28	2.9053
87.5	5.2201
87.72	14.5629
87.94	27.7921
88.16	8.70054
88.38	1.81387
88.6	3.94988
88.82	0.194884
89.04	3.62568
89.26	0.11887
89.48	2.92179
89.7	0.970786
89.92	0.619191
