Measurement: Powder, Xray Data XY Processed
Mineral: Scheelite
Rruff sample: R040173
Ideal chemistry: CaW^6+^O_4_
Locality: Santa Cruz, Sonora, Mexico
Source: University of Arizona Mineral Museum
Description: Yellow crystal fragments
Diffraction sample description: Powder
Measured chemistry: Ca_1.00_W_1.00_O_4_
Cell parameters: a: 5.24297(7) b: 5.24297(7) c: 11.3761(3) alpha: 90. beta: 90. gamma: 90. volume: 312.715(9) crystal system: tetragonal
x	intensity
5	0
5.22	8.92525
5.44	1.01279
5.66	1.53713
5.88	8.20191
6.1	16.2271
6.32	31.2789
6.54	17.478
6.76	7.43903
6.98	16.2308
7.2	13.517
7.42	7.87817
7.64	8.43257
7.86	10.6272
8.08	1.94215
8.3	3.05387
8.52	8.60559
8.74	10.7135
8.96	9.57853
9.18	4.46745
9.4	2.26124
9.62	9.0859
9.84	8.8234
10.06	3.3145
10.28	11.2833
10.5	7.0793
10.72	5.96052
10.94	5.88282
11.16	1.82955
11.38	14.8242
11.6	6.87763
11.82	2.97555
12.04	4.8802
12.26	0.411567
12.48	2.5709
12.7	8.72929
12.92	5.11686
13.14	4.42308
13.36	1.21843
13.58	4.38699
13.8	10.8175
14.02	6.96218
14.24	0.865548
14.46	8.18416
14.68	4.20859
14.9	9.20369
15.12	11.298
15.34	4.97862
15.56	10.9266
15.78	6.73938
16	8.91881
16.22	6.40372
16.44	4.04989
16.66	8.59473
16.88	19.444
17.1	3.73133
17.32	1.87321
17.54	0.292633
17.76	0.779452
17.98	8.0823
18.2	4.65328
18.42	29.9522
18.64	680.005
18.86	83.0992
19.08	18.2266
19.3	6.2407
19.52	2.64973
19.74	7.08501
19.96	2.59963
20.18	3.222
20.4	2.32213
20.62	6.11035
20.84	6.56015
21.06	5.73503
21.28	8.10039
21.5	4.32952
21.72	10.7332
21.94	3.84417
22.16	3.97528
22.38	0.071056
22.6	6.0491
22.82	1.57953
23.04	4.72224
23.26	1.71883
23.48	5.90101
23.7	5.86764
23.92	4.76055
24.14	2.55915
24.36	7.55689
24.58	4.50732
24.8	11.4322
25.02	6.34603
25.24	2.23589
25.46	1.12572
25.68	5.53786
25.9	21.7626
26.12	9.67478
26.34	7.57028
26.56	3.09908
26.78	6.16831
27	5.06345
27.22	3.75458
27.44	5.32024
27.66	8.76038
27.88	5.85265
28.1	13.7631
28.32	20.9165
28.54	101.693
28.76	1757.45
28.98	273.042
29.2	241.507
29.42	31.2191
29.64	7.26908
29.86	7.03505
30.08	1.04898
30.3	6.17615
30.52	1.1632
30.74	11.0865
30.96	7.92256
31.18	10.4689
31.4	55.0727
31.62	72.6304
31.84	18.8289
32.06	4.08427
32.28	1.32936
32.5	2.90867
32.72	3.21326
32.94	0.374413
33.16	4.52057
33.38	1.41182
33.6	2.03885
33.82	14.9025
34.04	35.0642
34.26	252.165
34.48	20.5362
34.7	9.71254
34.92	3.03738
35.14	7.40341
35.36	5.89421
35.58	1.37056
35.8	5.89513
36.02	2.10947
36.24	2.78535
36.46	2.91783
36.68	8.00863
36.9	5.55734
37.12	1.9254
37.34	15.5429
37.56	3.3254
37.78	13.9274
38	5.35307
38.22	10.9843
38.44	12.5152
38.66	12.7769
38.88	10.3842
39.1	39.0822
39.32	156.902
39.54	32.5434
39.76	9.09952
39.98	47.3262
40.2	10.8491
40.42	3.50651
40.64	0.908401
40.86	2.35239
41.08	11.0977
41.3	2.47669
41.52	2.7835
41.74	7.1521
41.96	4.02928
42.18	1.19376
42.4	18.6989
42.62	3.48252
42.84	5.39048
43.06	9.23698
43.28	21.0872
43.5	43.4924
43.72	3.81252
43.94	10.6096
44.16	11.3478
44.38	4.17879
44.6	2.96721
44.82	3.59035
45.04	5.43832
45.26	17.0302
45.48	156.87
45.7	18.3036
45.92	18.8202
46.14	4.05339
46.36	2.48844
46.58	0.932629
46.8	17.6783
47.02	73.0487
47.24	260.417
47.46	58.1679
47.68	16.873
47.9	15.767
48.12	0.851446
48.34	2.47011
48.56	5.9001
48.78	18.5807
49	31.4796
49.22	114.726
49.44	25.6269
49.66	13.8975
49.88	3.37227
50.1	4.09075
50.32	3.41512
50.54	1.74354
50.76	5.90863
50.98	5.02997
51.2	0.993448
51.42	11.5521
51.64	7.3503
51.86	4.96934
52.08	8.4458
52.3	1.18387
52.52	5.38864
52.74	7.89135
52.96	8.33232
53.18	20.9766
53.4	12.5687
53.62	3.31317
53.84	0.08876
54.06	20.1907
54.28	76.7153
54.5	171.213
54.72	23.5398
54.94	6.7845
55.16	4.97369
55.38	8.03963
55.6	0.995811
55.82	15.2606
56.04	15.1972
56.26	31.6842
56.48	61.5612
56.7	12.584
56.92	5.59771
57.14	4.76753
57.36	1.94129
57.58	12.7304
57.8	66.5077
58.02	150.985
58.24	53.489
58.46	13.2129
58.68	6.30117
58.9	5.68434
59.12	0.322928
59.34	23.1759
59.56	139.909
59.78	39.8379
60	6.98113
60.22	11.6711
60.44	4.68727
60.66	5.66188
60.88	1.23181
61.1	8.60777
61.32	9.17774
61.54	6.61952
61.76	5.85985
61.98	4.19472
62.2	1.41845
62.42	14.213
62.64	4.12585
62.86	8.92393
63.08	3.89318
63.3	1.66718
63.52	2.18646
63.74	9.41365
63.96	0.963982
64.18	7.75122
64.4	14.4214
64.62	64.9715
64.84	27.496
65.06	4.47443
65.28	10.5943
65.5	0.220661
65.72	14.0654
65.94	9.71625
66.16	6.93454
66.38	10.1489
66.6	6.16164
66.82	3.30595
67.04	8.44471
67.26	0.562088
67.48	10.8828
67.7	18.4628
67.92	5.16616
68.14	5.85104
68.36	4.19467
68.58	6.11465
68.8	2.97637
69.02	12.1198
69.24	29.9283
69.46	19.6577
69.68	6.54563
69.9	3.14906
70.12	1.08097
70.34	13.4152
70.56	22.4554
70.78	12.4733
71	8.42277
71.22	9.41784
71.44	1.68205
71.66	6.68101
71.88	9.91873
72.1	21.3287
72.32	16.6938
72.54	5.48681
72.76	4.75106
72.98	3.03552
73.2	9.27417
73.42	6.52618
73.64	4.50214
73.86	2.02809
74.08	3.49326
74.3	5.90272
74.52	10.1326
74.74	12.2244
74.96	1.88882
75.18	33.8103
75.4	13.1294
75.62	3.51386
75.84	3.91865
76.06	51.1912
76.28	181.774
76.5	84.1861
76.72	15.4413
76.94	1.12436
77.16	3.27235
77.38	8.85353
77.6	9.36774
77.82	9.82873
78.04	10.0886
78.26	8.98817
78.48	5.64024
78.7	2.01597
78.92	0.010138
79.14	18.2712
79.36	40.0158
79.58	43.9479
79.8	11.6359
80.02	1.49873
80.24	0.486354
80.46	3.17258
80.68	48.2987
80.9	25.4855
81.12	9.75868
81.34	0.77368
81.56	0.246266
81.78	2.18092
82	4.67475
82.22	46.3028
82.44	22.7397
82.66	14.0211
82.88	8.35117
83.1	0.84903
83.32	0.838208
83.54	3.38011
83.76	4.5226
83.98	4.70046
84.2	5.79821
84.42	12.7236
84.64	10.3384
84.86	3.89603
85.08	12.4114
85.3	0.017667
85.52	0.38811
85.74	4.47947
85.96	10.3944
86.18	50.5306
86.4	21.5703
86.62	1.43179
86.84	5.33978
87.06	1.49422
87.28	0.725107
87.5	4.00037
87.72	12.3871
87.94	28.5935
88.16	11.9921
88.38	6.24746
88.6	3.1407
88.82	1.67424
89.04	5.92789
89.26	13.0706
89.48	2.67327
89.7	5.31657
89.92	4.97624
