Measurement: Powder, Xray Data XY Processed
Mineral: Schmitterite
Rruff sample: R060524
Ideal chemistry: (U^6+^O_2_)Te^4+^O_3_
Locality: Moctezuma mine, Moctezuma, Sonora, Mexico
Source: Michael Scott
Description: Pale yellow rosette associated with green emmonsite, R060802
Diffraction sample description: Powder, using Mo radiation
Cell parameters: a: 10.114(3) b: 5.404(4) c: 7.861(3) alpha: 90 beta: 90 gamma: 90 volume: 429.7(2) crystal system: orthorhombic
x	intensity
5.57	0
5.69	1.70675
5.81	7.08833
5.93	3.64972
6.05	18.0684
6.17	24.5935
6.29	27.9404
6.41	46.416
6.53	53.1288
6.65	43.7478
6.77	68.7759
6.89	49.5205
7.01	30.1442
7.13	56.0455
7.25	75.1501
7.37	133.737
7.49	191.481
7.61	157.849
7.73	131.236
7.85	92.3824
7.97	79.431
8.09	81.7027
8.21	72.7991
8.33	92.9527
8.45	168.142
8.57	193.263
8.69	174.111
8.81	81.5349
8.93	48.2617
9.05	15.6381
9.17	1.74612
9.29	0.862614
9.41	5.95709
9.53	10.6228
9.65	1.68825
9.77	0.414936
9.89	6.55203
10.01	3.69581
10.13	2.26359
10.25	20.7667
10.37	22.128
10.49	21.314
10.61	24.8423
10.73	38.4492
10.85	238.532
10.97	488.001
11.09	608.885
11.21	526
11.33	269.191
11.45	98.2496
11.57	37.505
11.69	16.424
11.81	8.23554
11.93	3.34049
12.05	0.718144
12.17	3.00711
12.29	4.1959
12.41	11.6459
12.53	29.1449
12.65	158.353
12.77	323.736
12.89	493.23
13.01	631.544
13.13	681.889
13.25	687.294
13.37	477.833
13.49	252.764
13.61	163.861
13.73	72.9147
13.85	28.0414
13.97	11.2246
14.09	22.0438
14.21	26.9324
14.33	22.1302
14.45	12.7726
14.57	8.18524
14.69	3.82636
14.81	0.467135
14.93	6.20417
15.05	27.3447
15.17	61.6595
15.29	66.7228
15.41	16.3021
15.53	2.30032
15.65	0.281206
15.77	1.03693
15.89	0.934179
16.01	41.6565
16.13	63.2024
16.25	66.2532
16.37	42.6534
16.49	7.92502
16.61	0.058569
16.73	2.20429
16.85	0.725943
16.97	16.3365
17.09	49.8801
17.21	68.2189
17.33	46.5165
17.45	15.5031
17.57	3.90493
17.69	2.72777
17.81	7.09656
17.93	3.37203
18.05	0.128189
18.17	2.10281
18.29	15.1405
18.41	26.7535
18.53	38.8229
18.65	41.0849
18.77	35.852
18.89	24.6461
19.01	12.4545
19.13	9.95323
19.25	22.8331
19.37	27.7116
19.49	27.0787
19.61	16.4482
19.73	4.96846
19.85	14.9506
19.97	40.5949
20.09	77.8786
20.21	75.0178
20.33	54.0213
20.45	75.0604
20.57	179.921
20.69	304.997
20.81	348.306
20.93	247.407
21.05	99.4612
21.17	20.0403
21.29	2.13252
21.41	1.30952
21.53	0.514103
21.65	0.63492
21.77	6.04258
21.89	8.75815
22.01	46.6171
22.13	76.2314
22.25	88.0267
22.37	63.2498
22.49	44.8831
22.61	32.8376
22.73	35.0017
22.85	18.0563
22.97	2.20089
23.09	0.675985
23.21	1.10239
23.33	11.8445
23.45	61.0372
23.57	127.174
23.69	165.895
23.81	110.931
23.93	50.1269
24.05	14.1187
24.17	5.33539
24.29	6.05342
24.41	12.4532
24.53	31.807
24.65	35.6133
24.77	20.0512
24.89	4.24994
25.01	1.78629
25.13	0.923881
25.25	13.8801
25.37	28.746
25.49	33.399
25.61	25.2541
25.73	16.7629
25.85	16.0431
25.97	27.6118
26.09	54.6643
26.21	93.4769
26.33	147.365
26.45	195.847
26.57	183.97
26.69	112.401
26.81	56.6578
26.93	39.0988
27.05	41.9698
27.17	46.2264
27.29	51.1626
27.41	43.3286
27.53	38.9078
27.65	39.961
27.77	36.3898
27.89	34.8526
28.01	45.852
28.13	44.978
28.25	26.6461
28.37	17.6081
28.49	22.3837
28.61	31.5442
28.73	25.7014
28.85	13.3756
28.97	6.61031
29.09	0.265039
29.21	0.280943
29.33	2.30173
29.45	0.975603
29.57	1.51012
29.69	0.627106
29.81	3.07204
29.93	1.58452
30.05	0.902838
30.17	0.774294
30.29	15.0474
30.41	17.2898
30.53	24.2423
30.65	36.9179
30.77	43.1824
30.89	36.6461
31.01	34.6167
31.13	42.9064
31.25	47.8551
31.37	42.5943
31.49	34.3321
31.61	29.0425
31.73	23.7057
31.85	15.2934
31.97	19.7448
32.09	21.0769
32.21	42.7891
32.33	72.1208
32.45	93.6651
32.57	80.1424
32.69	67.0614
32.81	50.1145
32.93	57.0569
33.05	50.9075
33.17	47.2696
33.29	39.3571
33.41	25.6575
33.53	17.4243
33.65	0.626989
33.77	0.33948
33.89	1.33417
34.01	0.195636
34.13	0.650304
34.25	1.64981
34.37	10.5063
34.49	3.50363
34.61	8.71163
34.73	11.2479
34.85	8.37877
34.97	33.6305
35.09	55.9224
35.21	65.4584
35.33	50.536
35.45	44.4853
35.57	24.3247
35.69	16.8574
35.81	15.1234
35.93	16.9833
36.05	23.2606
36.17	34.4254
36.29	46.1169
36.41	47.8321
36.53	45.0134
36.65	29.0491
36.77	17.746
36.89	11.1894
37.01	8.05692
37.13	16.604
37.25	13.7828
37.37	11.68
37.49	4.36436
37.61	0.898149
37.73	1.20566
37.85	0.414973
37.97	3.90262
38.09	0.201144
38.21	2.34911
38.33	5.58916
38.45	6.16062
38.57	12.6183
38.69	14.0463
38.81	3.9087
38.93	13.9608
39.05	16.1052
39.17	9.9345
39.29	6.88309
39.41	6.94709
39.53	3.9178
39.65	1.1886
39.77	6.04586
39.89	18.2773
40.01	19.5371
40.13	24.9185
40.25	25.5072
40.37	17.2807
40.49	11.744
40.61	9.93075
40.73	13.3222
40.85	16.0493
40.97	12.2591
41.09	6.01518
41.21	3.76185
41.33	3.47821
41.45	5.76396
41.57	1.76149
41.69	3.11862
41.81	0.068084
41.93	2.43889
42.05	0.610335
42.17	3.91008
42.29	12.4121
42.41	6.65501
42.53	9.25568
42.65	3.54931
42.77	2.94349
42.89	5.81878
43.01	5.01564
43.13	12.4207
43.25	6.78819
43.37	2.9499
43.49	10.5799
43.61	3.2481
43.73	4.4757
43.85	10.2461
43.97	16.1213
44.09	6.4058
44.21	9.68612
44.33	5.14244
44.45	0.231934
44.57	1.10359
44.69	1.75215
44.81	5.72178
44.93	6.85982
45.05	9.03788
45.17	16.9751
45.29	10.9339
45.41	16.4979
45.53	14.7372
45.65	15.9195
45.77	12.2566
45.89	12.4068
46.01	0.076211
46.13	1.024
46.25	0.155243
46.37	5.12189
46.49	10.3966
46.61	12.7449
46.73	8.66066
46.85	17.1591
46.97	13.3508
47.09	9.43949
47.21	14.7161
47.33	2.87202
47.45	13.673
47.57	11.4194
47.69	3.08583
47.81	11.441
47.93	8.6808
48.05	0.279769
48.17	0.609168
48.29	11.597
48.41	16.1729
48.53	22.1822
48.65	8.23221
48.77	10.915
48.89	16.2516
49.01	8.02263
49.13	2.5563
49.25	2.43726
49.37	5.47848
49.49	4.41625
49.61	9.03652
49.73	13.0495
49.85	4.63046
49.97	11.2864
50.09	13.5272
50.21	14.3716
50.33	0.731195
50.45	12.6232
50.57	5.51668
50.69	4.06115
50.81	8.6217
50.93	2.30819
51.05	5.58489
51.17	9.90611
51.29	15.7403
51.41	7.18369
51.53	11.5648
51.65	11.8144
51.77	7.61217
51.89	0.286366
52.01	6.18646
52.13	6.81948
52.25	0.01839
52.37	3.18055
