Measurement: Powder, Xray Data XY Processed
Mineral: Schorl
Rruff sample: R050304
Ideal chemistry: NaFe^2+^_3_Al_6_(Si_6_O_18_)(BO_3_)_3_(OH)_3_OH
Locality: Erongo Mountains, Namibia
Source: Eugene Schlepp
Description: Black prismatic crystal associated with quartz and orthoclase
Diffraction sample description: Powder
Measured chemistry: (Na_0.86_[box]_0.14_)_Σ=1_(Fe^2+^_2.68_Mg_0.22_Al_0.06_Ti_0.04_)_Σ=3_Al_6.00_(BO_3_)_3_Si_6.00_O_18_(OH)_4_
Cell parameters: a: 16.0042(7) b: 16.0042(7) c: 7.1826(4) alpha: 90 beta: 90 gamma: 120 volume: 1593.3(0) crystal system: hexagonal
x	intensity
5	0
5.22	1.0693
5.44	28.119
5.66	11.8956
5.88	22.4718
6.1	21.1605
6.32	18.3824
6.54	5.33426
6.76	8.10529
6.98	9.16888
7.2	15.7518
7.42	24.0021
7.64	21.1011
7.86	15.3949
8.08	5.30174
8.3	22.844
8.52	2.87735
8.74	16.6099
8.96	30.732
9.18	4.36654
9.4	0.273476
9.62	18.9514
9.84	26.9031
10.06	13.851
10.28	12.8128
10.5	8.82586
10.72	14.1307
10.94	12.2983
11.16	21.7196
11.38	9.2682
11.6	32.2899
11.82	29.3019
12.04	13.3395
12.26	12.5274
12.48	7.6143
12.7	6.56627
12.92	12.9487
13.14	15.3345
13.36	0.597488
13.58	4.57474
13.8	29.0333
14.02	43.1592
14.24	42.9866
14.46	15.9449
14.68	12.6285
14.9	3.98993
15.12	24.0895
15.34	29.1812
15.56	21.1305
15.78	21.1523
16	7.08694
16.22	30.3203
16.44	12.2104
16.66	4.21413
16.88	18.1784
17.1	22.0699
17.32	9.17542
17.54	10.4069
17.76	34.4041
17.98	21.7511
18.2	18.3363
18.42	20.2986
18.64	33.1125
18.86	9.98077
19.08	21.0668
19.3	53.1366
19.52	21.683
19.74	28.1256
19.96	13.7646
20.18	2.56007
20.4	6.87627
20.62	14.8459
20.84	13.6106
21.06	222.24
21.28	2.18891
21.5	5.06203
21.72	7.17349
21.94	10.5719
22.16	10.7125
22.38	31.5637
22.6	29.8083
22.82	20.8354
23.04	15.9244
23.26	33.3755
23.48	12.9046
23.7	1.32149
23.92	15.3094
24.14	6.30013
24.36	18.1493
24.58	28.0022
24.8	23.2289
25.02	18.2601
25.24	7.86416
25.46	1.48999
25.68	458.581
25.9	14.2482
26.12	8.64253
26.34	25.8376
26.56	0.400162
26.78	54.4139
27	6.93011
27.22	9.91065
27.44	4.05376
27.66	1.08392
27.88	13.6931
28.1	21.5739
28.32	12.3325
28.54	9.25188
28.76	5.09283
28.98	16.6093
29.2	2.58363
29.42	7.77768
29.64	30.7064
29.86	0.009232
30.08	16.1297
30.3	130.025
30.52	24.8245
30.74	29.6469
30.96	20.2045
31.18	11.9545
31.4	1.72424
31.62	26.0572
31.84	0.671684
32.06	4.4688
32.28	12.9154
32.5	0.207413
32.72	8.8551
32.94	12.9296
33.16	28.6033
33.38	4.44158
33.6	9.09145
33.82	2.64101
34.04	19.8637
34.26	16.2462
34.48	10.7225
34.7	202.343
34.92	32.436
35.14	21.2618
35.36	14.1892
35.58	17.6757
35.8	31.6722
36.02	32.206
36.24	43.7427
36.46	12.6218
36.68	23.756
36.9	10.4519
37.12	28.7584
37.34	8.35067
37.56	44.4503
37.78	51.878
38	0.152138
38.22	14.0226
38.44	13.3856
38.66	0.909691
38.88	20.142
39.1	10.7211
39.32	14.75
39.54	16.842
39.76	16.0405
39.98	17.5142
40.2	16.7086
40.42	28.2228
40.64	0.132401
40.86	16.3093
41.08	18.5691
41.3	25.9944
41.52	3.7758
41.74	9.70376
41.96	4.47389
42.18	7.50375
42.4	33.9748
42.62	32.0894
42.84	14.4441
43.06	0.255486
43.28	4.26098
43.5	6.34295
43.72	15.0964
43.94	11.9516
44.16	41.04
44.38	61.9192
44.6	29.2231
44.82	31.1728
45.04	21.3871
45.26	1.7253
45.48	21.6998
45.7	7.11373
45.92	19.694
46.14	16.1006
46.36	5.2859
46.58	6.26524
46.8	8.46054
47.02	13.0003
47.24	111.058
47.46	40.9691
47.68	15.0696
47.9	35.1536
48.12	21.4195
48.34	2.21381
48.56	35.0943
48.78	11.4763
49	11.0333
49.22	2.94434
49.44	9.46025
49.66	18.2792
49.88	27.3684
50.1	4.05703
50.32	12.5725
50.54	3.64941
50.76	15.0252
50.98	1.74127
51.2	15.9313
51.42	11.1856
51.64	28.6732
51.86	12.29
52.08	12.7166
52.3	22.9495
52.52	11.2349
52.74	42.2667
52.96	15.4966
53.18	10.3756
53.4	7.06065
53.62	11.1258
53.84	9.25007
54.06	4.93283
54.28	13.2739
54.5	0.239143
54.72	2.60838
54.94	12.1366
55.16	7.89342
55.38	55.8255
55.6	15.6298
55.82	14.9684
56.04	18.0532
56.26	8.39899
56.48	12.5676
56.7	21.7085
56.92	29.8368
57.14	30.5129
57.36	13.7941
57.58	55.7166
57.8	41.6219
58.02	28.5007
58.24	11.08
58.46	7.84833
58.68	12.9723
58.9	7.35333
59.12	9.54345
59.34	9.84144
59.56	17.6132
59.78	21.3435
60	4.17157
60.22	24.7969
60.44	24.9978
60.66	2.16963
60.88	16.5317
61.1	13.8304
61.32	3.55369
61.54	53.3719
61.76	30.5281
61.98	20.4206
62.2	25.7848
62.42	16.2741
62.64	14.9034
62.86	18.8492
63.08	8.73301
63.3	2.31728
63.52	15.0199
63.74	12.566
63.96	61.2655
64.18	18.9892
64.4	7.58624
64.62	11.1308
64.84	32.088
65.06	27.9342
65.28	22.8611
65.5	22.9412
65.72	38.3557
65.94	12.7186
66.16	28.034
66.38	41.2779
66.6	27.5001
66.82	16.1642
67.04	15.2493
67.26	0.614784
67.48	15.5794
67.7	24.9349
67.92	16.3089
68.14	31.0057
68.36	13.5542
68.58	21.9853
68.8	15.6271
69.02	15.5499
69.24	22.5121
69.46	4.09224
69.68	12.8802
69.9	14.5965
70.12	30.1319
70.34	22.326
70.56	13.5778
70.78	31.5443
71	23.434
71.22	21.3204
71.44	19.8677
71.66	9.9089
71.88	18.2022
72.1	35.3357
72.32	12.005
72.54	12.1318
72.76	8.72348
72.98	0.171768
73.2	27.632
73.42	6.66657
73.64	30.4871
73.86	10.0773
74.08	22.4556
74.3	43.8769
74.52	39.3742
74.74	3.97922
74.96	21.0193
75.18	4.66894
75.4	21.6222
75.62	26.0071
75.84	4.18198
76.06	32.1072
76.28	22.6254
76.5	1.14202
76.72	29.977
76.94	15.3498
77.16	29.2954
77.38	4.29887
77.6	12.4616
77.82	29.7907
78.04	12.7098
78.26	7.63369
78.48	1.14289
78.7	4.90543
78.92	22.0409
79.14	13.0072
79.36	12.1601
79.58	6.13162
79.8	3.17568
80.02	19.1661
80.24	16.0161
80.46	17.5342
80.68	8.4846
80.9	12.0443
81.12	20.3084
81.34	12.0528
81.56	16.4396
81.78	6.75807
82	26.2437
82.22	16.7716
82.44	0.712059
82.66	19.4318
82.88	22.2179
83.1	3.48874
83.32	13.5024
83.54	25.9843
83.76	11.0489
83.98	26.9766
84.2	18.0352
84.42	8.12847
84.64	10.0773
84.86	20.1617
85.08	0.292946
85.3	19.33
85.52	17.1956
85.74	16.7115
85.96	12.9964
86.18	15.9699
86.4	4.49638
86.62	0.361351
86.84	21.9604
87.06	10.995
87.28	2.01469
87.5	16.7743
87.72	6.1873
87.94	22.0044
88.16	10.6602
88.38	11.6294
88.6	0.889069
88.82	5.39085
89.04	36.6711
89.26	2.50177
89.48	25.4439
89.7	13.3427
89.92	26.8357
