Measurement: Powder, Xray Data XY Processed
Mineral: Schreibersite
Rruff sample: R070239
Ideal chemistry: (Fe,Ni,Cr)_3_P
Locality: Sao Juliao de Moreira meteorite, Ponte de Lima, Viana do Castelo district, Portugal
Source: Michael Scott
Description: Silvery fragments with slightly brassy luster, co-type specimen
Diffraction sample description: Powder
Cell parameters: a: 9.0786(3) b: 9.0786(3) c: 4.4634(2) alpha: 90 beta: 90 gamma: 90 volume: 367.87(2) crystal system: tetragonal
x	intensity
5	0
5.22	7.99376
5.44	21.5681
5.66	8.99515
5.88	47.17
6.1	19.4423
6.32	11.1902
6.54	14.3043
6.76	5.66613
6.98	44.7571
7.2	40.4993
7.42	26.0934
7.64	23.0519
7.86	21.3947
8.08	18.91
8.3	11.9414
8.52	9.90199
8.74	10.7876
8.96	35.3662
9.18	7.56308
9.4	42.3133
9.62	22.854
9.84	23.4513
10.06	46.1756
10.28	23.7044
10.5	42.271
10.72	26.4484
10.94	15.4635
11.16	14.1851
11.38	28.1374
11.6	16.8754
11.82	18.5746
12.04	15.1179
12.26	25.3588
12.48	18.5069
12.7	16.7236
12.92	29.531
13.14	22.9561
13.36	15.8724
13.58	24.1399
13.8	26.0165
14.02	24.3663
14.24	23.6247
14.46	23.1253
14.68	13.2707
14.9	11.1863
15.12	32.299
15.34	22.3538
15.56	16.0221
15.78	14.269
16	14.6214
16.22	45.0476
16.44	7.61719
16.66	26.3465
16.88	42.401
17.1	28.0276
17.32	34.9858
17.54	5.46638
17.76	42.3389
17.98	24.8805
18.2	30.3684
18.42	24.666
18.64	22.4041
18.86	0.086014
19.08	9.93381
19.3	16.7636
19.52	44.7673
19.74	10.7348
19.96	4.59331
20.18	28.7289
20.4	30.2891
20.62	14.4629
20.84	19.424
21.06	28.1954
21.28	45.8011
21.5	15.7639
21.72	16.7551
21.94	22.4145
22.16	34.8375
22.38	46.7824
22.6	30.6727
22.82	16.5799
23.04	29.319
23.26	7.0053
23.48	34.6316
23.7	14.1985
23.92	28.9975
24.14	7.93304
24.36	8.24168
24.58	6.48114
24.8	22.3149
25.02	15.053
25.24	3.1857
25.46	40.829
25.68	32.7907
25.9	10.1034
26.12	20.1369
26.34	13.554
26.56	20.6269
26.78	6.42998
27	30.3529
27.22	12.9678
27.44	11.2431
27.66	11.2855
27.88	10.0004
28.1	15.0193
28.32	27.9545
28.54	35.8
28.76	25.7891
28.98	43.1277
29.2	23.4233
29.42	7.62837
29.64	28.0047
29.86	44.7078
30.08	13.0431
30.3	21.22
30.52	14.973
30.74	27.5458
30.96	1.86635
31.18	23.1394
31.4	19.4969
31.62	7.98769
31.84	31.7602
32.06	10.3488
32.28	43.5948
32.5	14.6952
32.72	28.7473
32.94	30.3428
33.16	55.8184
33.38	33.2285
33.6	6.03453
33.82	34.5171
34.04	7.21934
34.26	36.1385
34.48	36.4835
34.7	4.94475
34.92	27.718
35.14	2.09091
35.36	22.8176
35.58	14.2125
35.8	33.9876
36.02	36.2537
36.24	55.3206
36.46	57.9312
36.68	32.5461
36.9	3.11504
37.12	42.5288
37.34	7.85254
37.56	49.3659
37.78	6.95442
38	12.8636
38.22	51.4746
38.44	20.5333
38.66	45.5642
38.88	17.8733
39.1	17.6666
39.32	20.0336
39.54	31.6065
39.76	25.8889
39.98	43.2596
40.2	19.8167
40.42	25.3608
40.64	14.5862
40.86	10.6076
41.08	41.6025
41.3	116.624
41.52	45.6077
41.74	26.2732
41.96	3.29047
42.18	25.3542
42.4	58.1131
42.62	43.1885
42.84	26.8415
43.06	36.2751
43.28	3.75638
43.5	21.6224
43.72	6.89856
43.94	35.9517
44.16	29.1703
44.38	24.2297
44.6	38.3627
44.82	44.4357
45.04	19.6734
45.26	10.5106
45.48	27.2463
45.7	23.7292
45.92	83.6337
46.14	40.836
46.36	23.919
46.58	29.812
46.8	32.4557
47.02	37.4326
47.24	10.1437
47.46	18.241
47.68	13.1025
47.9	9.71809
48.12	17.1318
48.34	26.7971
48.56	26.4923
48.78	18.1799
49	43.5313
49.22	28.1571
49.44	13.4499
49.66	12.0488
49.88	35.2007
50.1	23.0253
50.32	23.1833
50.54	14.9481
50.76	17.9362
50.98	12.8104
51.2	5.43716
51.42	36.1224
51.64	36.4365
51.86	48.8707
52.08	48.1587
52.3	15.6956
52.52	16.3328
52.74	17.0766
52.96	39.7644
53.18	3.99643
53.4	26.717
53.62	9.60539
53.84	1.42842
54.06	27.9682
54.28	30.8482
54.5	37.6511
54.72	27.8989
54.94	15.0861
55.16	20.4021
55.38	0.581177
55.6	3.74951
55.82	17.7864
56.04	34.3583
56.26	23.2091
56.48	26.5724
56.7	43.2163
56.92	50.4881
57.14	25.7726
57.36	24.1565
57.58	55.8621
57.8	36.5145
58.02	52.9695
58.24	5.82736
58.46	49.9095
58.68	23.0982
58.9	34.5848
59.12	36.0119
59.34	42.9156
59.56	32.3778
59.78	43.2051
60	36.0904
60.22	4.20061
60.44	19.8326
60.66	45.1951
60.88	40.1469
61.1	29.1177
61.32	34.0617
61.54	13.9724
61.76	15.7188
61.98	0.891632
62.2	22.7471
62.42	15.9932
62.64	14.0265
62.86	24.3806
63.08	21.7148
63.3	5.85628
63.52	20.0091
63.74	43.9611
63.96	30.6567
64.18	35.9924
64.4	22.9965
64.62	13.7025
64.84	16.2772
65.06	32.0333
65.28	42.1179
65.5	4.64388
65.72	26.1814
65.94	33.2906
66.16	13.7058
66.38	25.8428
66.6	48.0953
66.82	28.5189
67.04	0.504608
67.26	35.2361
67.48	1.45487
67.7	30.3208
67.92	39.7431
68.14	13.0069
68.36	34.5513
68.58	9.10439
68.8	37.9641
69.02	29.6861
69.24	4.96957
69.46	36.8001
69.68	15.3245
69.9	1.08577
70.12	12.6619
70.34	23.9527
70.56	56.0814
70.78	34.5791
71	18.2357
71.22	8.64304
71.44	21.1365
71.66	11.5831
71.88	24.4969
72.1	35.2521
72.32	27.5459
72.54	1.26466
72.76	40.7348
72.98	38.1447
73.2	6.54652
73.42	10.5581
73.64	22.5453
73.86	35.6013
74.08	4.32794
74.3	63.9579
74.52	40.5093
74.74	23.5155
74.96	21.3234
75.18	27.6928
75.4	40.7996
75.62	13.7273
75.84	38.2068
76.06	10.7441
76.28	5.94864
76.5	37.4438
76.72	15.1643
76.94	23.0559
77.16	35.9721
77.38	34.6296
77.6	46.9865
77.82	19.1891
78.04	2.46376
78.26	51.2169
78.48	19.275
78.7	39.6511
78.92	41.786
79.14	27.2117
79.36	13.5071
79.58	47.4947
79.8	56.817
80.02	6.91627
80.24	34.9679
80.46	45.9792
80.68	5.18117
80.9	27.981
81.12	25.7046
81.34	22.3965
81.56	1.44351
81.78	38.4478
82	10.5715
82.22	27.8813
82.44	33.8171
82.66	26.172
82.88	41.8824
83.1	32.2316
83.32	26.5696
83.54	5.57993
83.76	8.80838
83.98	23.7477
84.2	15.6289
84.42	20.2551
84.64	15.8314
84.86	54.5845
85.08	36.1313
85.3	26.9772
85.52	50.4426
85.74	41.3972
85.96	20.3964
86.18	37.8477
86.4	42.9672
86.62	31.4384
86.84	6.85921
87.06	44.5003
87.28	30.0549
87.5	14.5727
87.72	4.10486
87.94	42.9179
88.16	9.00116
88.38	4.75372
88.6	6.24768
88.82	30.8415
89.04	5.6787
89.26	0.893997
89.48	16.7485
89.7	34.0345
89.92	57.9737
