Measurement: Powder, Xray Data XY Processed
Mineral: Schultenite
Rruff sample: R050584
Ideal chemistry: Pb^2+^(As^5+^O_3_OH)
Locality: Tsumeb mine, Tsumeb, Otavi District, Oshikoto, Namibia
Source: University of Arizona Mineral Museum
Description: Colorless prismatic crystals with obvious striations, associated with keyite, R050585, and zincolivenite, R050583
Diffraction sample description: Single crystal, powder profile is calculated
Measured chemistry: Pb_1.00_(As_1.00_O_3_OH)
Cell parameters: a: 4.885(2) b: 6.754(3) c: 5.843(1) alpha: 90 beta: 95.39(2) gamma: 90 volume: 190.74(7) crystal system: monoclinic
x	intensity
5	0
5.22	0
5.44	0
5.66	0
5.88	0
6.1	0
6.32	0
6.54	0
6.76	0
6.98	0
7.2	0
7.42	0
7.64	0
7.86	0
8.08	0
8.3	0
8.52	0
8.74	0
8.96	0
9.18	0
9.4	0
9.62	0
9.84	0
10.06	0
10.28	0
10.5	0
10.72	0
10.94	0
11.16	0
11.38	0
11.6	0
11.82	0
12.04	0
12.26	0
12.48	0
12.7	0
12.92	0
13.14	24.31
13.36	0
13.58	0
13.8	0
14.02	0
14.24	0
14.46	0
14.68	0
14.9	0
15.12	0
15.34	0
15.56	0
15.78	0
16	0
16.22	0
16.44	0
16.66	0
16.88	0
17.1	0
17.32	0
17.54	0
17.76	0
17.98	0
18.2	11.044
18.42	0
18.64	0
18.86	0
19.08	0
19.3	0
19.52	0
19.74	0
19.96	0
20.18	18.012
20.4	0
20.62	0
20.84	0
21.06	0
21.28	0
21.5	0
21.72	0
21.94	0
22.16	0
22.38	0
22.6	1.433
22.82	0
23.04	0
23.26	0
23.48	0
23.7	0
23.92	0
24.14	0
24.36	0
24.58	0
24.8	0
25.02	0
25.24	0
25.46	0
25.68	0
25.9	0
26.12	0
26.34	79.653
26.56	0.003
26.78	0
27	0
27.22	0
27.44	0
27.66	0
27.88	0
28.1	0
28.32	51.67
28.54	0
28.76	0
28.98	0
29.2	0
29.42	0
29.64	0
29.86	0
30.08	0
30.3	0
30.52	0.413
30.74	21.466
30.96	0
31.18	0
31.4	0
31.62	0
31.84	0
32.06	0
32.28	4.949
32.5	0
32.72	0
32.94	0
33.16	0
33.38	0
33.6	3.049
33.82	0
34.04	0
34.26	0.003
34.48	2.358
34.7	0
34.92	0.002
35.14	11.415
35.36	0
35.58	0
35.8	0
36.02	0
36.24	0
36.46	0
36.68	3.03
36.9	8.151
37.12	0.135
37.34	0.006
37.56	3.052
37.78	0
38	0
38.22	0
38.44	0
38.66	0
38.88	0
39.1	0
39.32	0.853
39.54	0.013
39.76	0.05
39.98	3.999
40.2	0.142
40.42	0
40.64	0
40.86	4.277
41.08	9.718
41.3	0.001
41.52	0
41.74	0
41.96	0
42.18	0
42.4	0
42.62	0
42.84	0
43.06	2.972
43.28	0.002
43.5	0
43.72	2.791
43.94	2.386
44.16	0
44.38	1.254
44.6	0
44.82	0
45.04	0
45.26	0
45.48	0
45.7	0
45.92	9.516
46.14	1.126
46.36	6.748
46.58	2.281
46.8	0
47.02	0
47.24	0
47.46	0.717
47.68	3.74
47.9	1.21
48.12	0
48.34	1.816
48.56	0.067
48.78	1.89
49	0.989
49.22	0
49.44	0
49.66	0
49.88	2.242
50.1	0.037
50.32	0
50.54	0
50.76	3.42
50.98	4.615
51.2	2.661
51.42	4.874
51.64	0
51.86	0
52.08	0
52.3	0
52.52	0
52.74	0
52.96	0.153
53.18	0.409
53.4	0
53.62	0
53.84	0.159
54.06	4.703
54.28	5.472
54.5	0.497
54.72	0.143
54.94	0
55.16	0
55.38	0
55.6	6.614
55.82	0.221
56.04	0.19
56.26	0.017
56.48	0.768
56.7	2.541
56.92	1.494
57.14	0.029
57.36	0
57.58	0
57.8	0.173
58.02	0.002
58.24	0
58.46	5.13
58.68	0.238
58.9	0
59.12	0.082
59.34	1.102
59.56	8.343
59.78	2.558
60	0
60.22	0
60.44	0
60.66	3.711
60.88	0.116
61.1	0
61.32	0
61.54	0
61.76	0
61.98	0
62.2	0
62.42	3.192
62.64	0.133
62.86	4.437
63.08	1.007
63.3	0.065
63.52	0.027
63.74	0.428
63.96	2.629
64.18	0.917
64.4	0.708
64.62	0.172
64.84	0.118
65.06	0.365
65.28	0.082
65.5	0.002
65.72	0.362
65.94	0.45
66.16	0
66.38	0
66.6	0
66.82	2.511
67.04	1.254
67.26	0.575
67.48	1.563
67.7	0.295
67.92	1.739
68.14	0.347
68.36	0
68.58	0.025
68.8	0.144
69.02	0.272
69.24	0.192
69.46	0.557
69.68	0.43
69.9	0
70.12	0
70.34	0.107
70.56	0.747
70.78	0.39
71	0
71.22	0
71.44	0.001
71.66	0.314
71.88	0.171
72.1	0
72.32	0.838
72.54	1.559
72.76	0.861
72.98	0.166
73.2	0
73.42	0
73.64	0
73.86	3.431
74.08	2.541
74.3	0.357
74.52	0.059
74.74	0.024
74.96	0
75.18	1.23
75.4	0.769
75.62	0.077
75.84	0
76.06	1.529
76.28	0.821
76.5	0
76.72	0
76.94	0
77.16	0.159
77.38	0.06
77.6	0
77.82	0.447
78.04	0.219
78.26	0.379
78.48	0.893
78.7	1.024
78.92	0.559
79.14	0.027
79.36	0.043
79.58	0.048
79.8	0.03
80.02	0.074
80.24	0.133
80.46	0.037
80.68	0.014
80.9	0
81.12	0
81.34	0.222
81.56	0.039
81.78	0.412
82	0.222
82.22	1.914
82.44	1.318
82.66	0.198
82.88	0.138
83.1	3.005
83.32	1.759
83.54	0.006
83.76	0.019
83.98	0.476
84.2	0.118
84.42	0.37
84.64	1.53
84.86	0.482
85.08	1.257
85.3	1.279
85.52	0.053
85.74	0.949
85.96	1.373
86.18	1.492
86.4	0.524
86.62	0.226
86.84	0.025
87.06	0.025
87.28	0
87.5	0
87.72	1.756
87.94	0.815
88.16	0
88.38	0.332
88.6	0.102
88.82	0.459
89.04	0.935
89.26	0.052
89.48	0.67
89.7	0.044
89.92	0.156
