Measurement: Powder, Xray Data XY Processed
Mineral: Scolecite
Rruff sample: R040111
Ideal chemistry: Ca(Si_3_Al_2_)O_10_3H_2_O
Locality: Bombay-Poona area, Mahahashtra Province, India
Source: National Museums of Canada
Description: Pale pink prismatic crystals in parallel or near parallel aggregates
Diffraction sample description: Powder
Measured chemistry: Ca_0.98_(Si_3.05_Al_1.95_)O_10_Â·3H_2_O
Cell parameters: a: 6.5239(8) b: 18.961(2) c: 9.8433(8) alpha: 90. beta: 109.990(8) gamma: 90. volume: 1144.3(1) crystal system: monoclinic
x	intensity
5	0
5.22	6.66606
5.44	16.173
5.66	2.19767
5.88	17.5743
6.1	7.2875
6.32	8.87731
6.54	6.81664
6.76	7.28167
6.98	21.11
7.2	15.8905
7.42	2.72555
7.64	7.31635
7.86	3.88262
8.08	9.4701
8.3	0.135517
8.52	8.20358
8.74	16.4881
8.96	6.17444
9.18	8.22794
9.4	11.1742
9.62	7.31973
9.84	5.46425
10.06	7.50578
10.28	8.55245
10.5	0.541262
10.72	0.915595
10.94	13.153
11.16	7.11774
11.38	9.32854
11.6	11.3399
11.82	1.29501
12.04	1.17003
12.26	11.5282
12.48	1.3544
12.7	4.14045
12.92	2.27765
13.14	7.8454
13.36	393.647
13.58	17.4908
13.8	8.32224
14.02	11.2704
14.24	7.26612
14.46	14.3755
14.68	2.5763
14.9	8.92058
15.12	501.389
15.34	13.1952
15.56	4.48416
15.78	3.81487
16	3.03483
16.22	5.33347
16.44	4.88928
16.66	8.23696
16.88	12.5722
17.1	6.50777
17.32	6.27329
17.54	6.01762
17.76	9.72203
17.98	0.920425
18.2	10.2543
18.42	14.7405
18.64	22.2095
18.86	31.4968
19.08	10.85
19.3	87.146
19.52	5.81487
19.74	8.39661
19.96	7.28805
20.18	319.313
20.4	33.5407
20.62	8.96321
20.84	5.62562
21.06	162.013
21.28	7.50569
21.5	15.1449
21.72	7.88587
21.94	5.33387
22.16	0.083073
22.38	3.64128
22.6	8.11717
22.82	3.62677
23.04	2.91469
23.26	1.74192
23.48	7.82111
23.7	2.13806
23.92	13.8827
24.14	5.95254
24.36	24.8514
24.58	10.5435
24.8	9.05924
25.02	10.1461
25.24	4.84859
25.46	4.9248
25.68	11.7806
25.9	4.39074
26.12	6.80788
26.34	8.25362
26.56	5.84603
26.78	6.48117
27	17.9508
27.22	2.8858
27.44	8.94708
27.66	94.5345
27.88	11.2239
28.1	66.9461
28.32	111.245
28.54	0.962599
28.76	0.087318
28.98	51.7543
29.2	24.5025
29.42	0.231253
29.64	0.081079
29.86	54.2755
30.08	3.75169
30.3	12.5646
30.52	150.462
30.74	49.315
30.96	434.114
31.18	76.6807
31.4	491.988
31.62	10.6758
31.84	0.329747
32.06	3.58486
32.28	2.21601
32.5	7.1227
32.72	0.874887
32.94	2.58913
33.16	5.41638
33.38	17.4706
33.6	6.33985
33.82	1.40555
34.04	4.2001
34.26	3.56546
34.48	22.886
34.7	51.8274
34.92	22.417
35.14	16.247
35.36	3.93248
35.58	3.00015
35.8	2.98307
36.02	0.96371
36.24	46.2525
36.46	4.5598
36.68	10.943
36.9	12.6098
37.12	62.5437
37.34	5.59786
37.56	5.65198
37.78	1.58455
38	3.54048
38.22	7.43738
38.44	0.396351
38.66	10.9654
38.88	37.5186
39.1	4.89977
39.32	53.9598
39.54	2.83689
39.76	18.4415
39.98	10.2676
40.2	7.35292
40.42	1.45931
40.64	5.64079
40.86	122.953
41.08	19.1323
41.3	7.09347
41.52	3.3787
41.74	19.1888
41.96	0.62291
42.18	11.9666
42.4	2.0541
42.62	8.00929
42.84	15.8768
43.06	2.73568
43.28	1.30861
43.5	22.1473
43.72	5.33185
43.94	3.33748
44.16	4.70068
44.38	30.3025
44.6	27.2406
44.82	0.61651
45.04	1.77214
45.26	3.92169
45.48	53.9192
45.7	11.0189
45.92	2.55961
46.14	1.73677
46.36	11.6558
46.58	7.33025
46.8	11.3252
47.02	6.52507
47.24	8.18016
47.46	3.86152
47.68	12.6632
47.9	8.48808
48.12	0.788575
48.34	10.9441
48.56	33.6948
48.78	75.7183
49	48.7364
49.22	11.6815
49.44	6.36117
49.66	18.1292
49.88	3.34642
50.1	35.7602
50.32	24.5845
50.54	85.505
50.76	10.6817
50.98	1.24464
51.2	2.62353
51.42	4.81833
51.64	4.09797
51.86	15.5768
52.08	58.7623
52.3	16.6369
52.52	15.8932
52.74	9.68839
52.96	5.2908
53.18	12.5283
53.4	1.59629
53.62	6.73298
53.84	2.16028
54.06	2.46851
54.28	1.33696
54.5	11.2052
54.72	0.858946
54.94	11.9223
55.16	8.11535
55.38	8.55774
55.6	9.37023
55.82	6.07369
56.04	41.6666
56.26	17.6983
56.48	13.452
56.7	12.2929
56.92	42.1164
57.14	17.3315
57.36	7.32768
57.58	29.8553
57.8	15.1948
58.02	7.84835
58.24	5.33992
58.46	2.08001
58.68	6.10399
58.9	3.71079
59.12	4.0602
59.34	4.23809
59.56	5.48007
59.78	3.56033
60	16.2121
60.22	7.59449
60.44	16.5476
60.66	13.5379
60.88	6.23441
61.1	10.1953
61.32	5.91542
61.54	1.00092
61.76	4.8239
61.98	16.7089
62.2	12.5282
62.42	0.424674
62.64	4.0122
62.86	11.6328
63.08	6.52577
63.3	28.97
63.52	8.22453
63.74	5.34089
63.96	8.25268
64.18	3.3044
64.4	10.5225
64.62	3.59573
64.84	5.99478
65.06	52.0276
65.28	5.86967
65.5	4.09515
65.72	4.9291
65.94	4.61715
66.16	5.66043
66.38	4.73396
66.6	5.76407
66.82	0.713642
67.04	1.17655
67.26	7.53852
67.48	9.67748
67.7	19.1114
67.92	8.19344
68.14	15.1598
68.36	6.30237
68.58	1.39596
68.8	2.43252
69.02	5.58882
69.24	7.63566
69.46	1.68938
69.68	9.45239
69.9	5.81778
70.12	6.21341
70.34	0.910271
70.56	14.433
70.78	5.93594
71	25.3916
71.22	19.056
71.44	5.58824
71.66	6.53214
71.88	8.19179
72.1	9.47296
72.32	14.7637
72.54	7.95779
72.76	7.49136
72.98	1.83514
73.2	10.3526
73.42	6.99638
73.64	0.517161
73.86	0.971826
74.08	5.11158
74.3	2.61395
74.52	4.95815
74.74	2.07394
74.96	5.23251
75.18	12.0101
75.4	7.00743
75.62	0.118474
75.84	0.176762
76.06	8.61552
76.28	3.42884
76.5	5.23223
76.72	12.0658
76.94	49.8834
77.16	11.792
77.38	1.58641
77.6	1.38832
77.82	6.2272
78.04	7.12229
78.26	6.04086
78.48	13.9691
78.7	0.926833
78.92	8.2974
79.14	1.25701
79.36	11.1293
79.58	14.1259
79.8	5.21867
80.02	5.39374
80.24	0.54051
80.46	1.47761
80.68	12.6507
80.9	7.95129
81.12	9.13605
81.34	0.04497
81.56	4.21229
81.78	0.480436
82	3.53188
82.22	2.62913
82.44	13.6575
82.66	1.70044
82.88	0.771223
83.1	8.84878
83.32	4.86629
83.54	6.02247
83.76	5.2799
83.98	10.1454
84.2	6.35428
84.42	4.5109
84.64	2.19281
84.86	3.04433
85.08	1.18055
85.3	2.31955
85.52	5.50558
85.74	1.41035
85.96	7.77763
86.18	5.75769
86.4	1.94092
86.62	3.95019
86.84	7.1599
87.06	12.1373
87.28	4.14364
87.5	4.18636
87.72	3.2186
87.94	6.31672
88.16	6.40635
88.38	7.3024
88.6	4.16833
88.82	1.95146
89.04	1.74105
89.26	7.72795
89.48	2.79317
89.7	1.87378
89.92	4.5663
