Measurement: Powder, Xray Data XY Processed
Mineral: Scolecite
Rruff sample: R050083
Ideal chemistry: Ca(Si_3_Al_2_)O_10_3H_2_O
Locality: near Ahmednagar, Maharashtra, India
Source: Rock Currier
Description: Colorless acicular single crystals associated with fluorapophyllite
Diffraction sample description: Powder
Measured chemistry: (Ca_.992_Na_.008_)[Al_2_Si_3_O_10_]Â·3H_2_O
Cell parameters: a: 6.5228(4) b: 18.9698(6) c: 9.8433(4) alpha: 90. beta: 109.965(4) gamma: 90. volume: 1144.79(6) crystal system: monoclinic
x	intensity
5	0
5.22	7.006
5.44	5.235
5.66	4.895
5.88	10.829
6.1	12.95
6.32	6.32
6.54	18.622
6.76	20.137
6.98	22.567
7.2	8.615
7.42	10.092
7.64	5.676
7.86	1.178
8.08	3.524
8.3	4.99
8.52	0.653
8.74	7.644
8.96	0.999
9.18	8.843
9.4	11.177
9.62	3.501
9.84	6.568
10.06	0.706
10.28	7.1
10.5	4.394
10.72	7.509
10.94	3.575
11.16	9.749
11.38	7.646
11.6	11.521
11.82	1.626
12.04	5.274
12.26	3.918
12.48	0.704
12.7	0.014
12.92	0.754
13.14	6.547
13.36	275.789
13.58	21.652
13.8	6.439
14.02	0.317
14.24	7.087
14.46	4.243
14.68	4.339
14.9	5.477
15.12	532.159
15.34	14.393
15.56	4.743
15.78	2.754
16	3.94
16.22	0.398
16.44	6.818
16.66	4.483
16.88	5.22
17.1	1.365
17.32	1.389
17.54	7.793
17.76	9.711
17.98	3.683
18.2	9.963
18.42	0.603
18.64	25.83
18.86	31.476
19.08	10.58
19.3	40.676
19.52	1.459
19.74	4.664
19.96	0.456
20.18	271.497
20.4	36.569
20.62	12.012
20.84	4.6
21.06	123.535
21.28	8.722
21.5	14.12
21.72	1.72
21.94	0.808
22.16	9.232
22.38	1.752
22.6	5.179
22.82	6.526
23.04	4.479
23.26	4.036
23.48	2.031
23.7	9.369
23.92	4.424
24.14	6.496
24.36	22.527
24.58	3.801
24.8	1.138
25.02	1.834
25.24	2.161
25.46	6.917
25.68	2.06
25.9	8.963
26.12	5.671
26.34	2.415
26.56	6.039
26.78	0.422
27	12.027
27.22	9.454
27.44	8.129
27.66	107.894
27.88	8.029
28.1	49.622
28.32	48.719
28.54	3.892
28.76	2.028
28.98	87.114
29.2	36.026
29.42	4.917
29.64	2.789
29.86	30.358
30.08	1.166
30.3	6.762
30.52	173.679
30.74	69.62
30.96	377.837
31.18	129.37
31.4	273.354
31.62	8.071
31.84	11.534
32.06	1.93
32.28	1.515
32.5	5.028
32.72	0.867
32.94	5.15
33.16	0.198
33.38	11.662
33.6	3.382
33.82	2.375
34.04	1.028
34.26	5.035
34.48	13.388
34.7	48.403
34.92	19.598
35.14	13.086
35.36	1.074
35.58	4.28
35.8	5.271
36.02	3.276
36.24	56.344
36.46	3.454
36.68	13.57
36.9	14.34
37.12	32.096
37.34	8.186
37.56	5.157
37.78	5.914
38	5.776
38.22	0.654
38.44	0.446
38.66	5.091
38.88	16.643
39.1	5.193
39.32	37.088
39.54	5.293
39.76	11.713
39.98	2.53
40.2	14.46
40.42	1.526
40.64	5.761
40.86	141.959
41.08	18.235
41.3	6.757
41.52	7.926
41.74	16.875
41.96	0.941
42.18	17.451
42.4	7.711
42.62	8.857
42.84	7.951
43.06	1.06
43.28	6.84
43.5	5.764
43.72	9.298
43.94	7.649
44.16	9.734
44.38	19.543
44.6	28.394
44.82	1.621
45.04	1.881
45.26	3.844
45.48	39.723
45.7	7.854
45.92	3.176
46.14	2.21
46.36	3.125
46.58	14.922
46.8	1.812
47.02	7.577
47.24	3.011
47.46	3.454
47.68	4.171
47.9	9.897
48.12	8.423
48.34	3.911
48.56	28.462
48.78	32.718
49	58.449
49.22	12.346
49.44	17.622
49.66	45.487
49.88	2.38
50.1	68.277
50.32	18.981
50.54	24.096
50.76	14.422
50.98	7.803
51.2	0.643
51.42	1.023
51.64	2.382
51.86	12.017
52.08	25.294
52.3	4.685
52.52	10.607
52.74	1.213
52.96	5.237
53.18	10.684
53.4	1.842
53.62	5.958
53.84	6.193
54.06	4.328
54.28	6.016
54.5	8.926
54.72	4.405
54.94	4.022
55.16	5.376
55.38	7.752
55.6	6.05
55.82	2.57
56.04	12.976
56.26	26.477
56.48	13.736
56.7	9.515
56.92	18.079
57.14	12.344
57.36	0.363
57.58	21.728
57.8	18.48
58.02	0.715
58.24	11.272
58.46	7.033
58.68	7.468
58.9	1.997
59.12	3.327
59.34	1.601
59.56	5.823
59.78	9.839
60	18.002
60.22	9.768
60.44	12.164
60.66	9.449
60.88	6.206
61.1	5.187
61.32	3.308
61.54	3.321
61.76	4.316
61.98	9.269
62.2	9.321
62.42	6.2
62.64	6.009
62.86	8.887
63.08	16.661
63.3	14.722
63.52	7.908
63.74	3.741
63.96	2.729
64.18	5.771
64.4	0.095
64.62	3.107
64.84	0.177
65.06	15.401
65.28	14.241
65.5	7.273
65.72	0.728
65.94	7.29
66.16	4.481
66.38	7.549
66.6	2.656
66.82	5.519
67.04	6.988
67.26	0.074
67.48	11.326
67.7	9.683
67.92	9.911
68.14	1.997
68.36	5.835
68.58	4.668
68.8	0.658
69.02	2.466
69.24	6.517
69.46	4.2
69.68	4.816
69.9	7.048
70.12	7.393
70.34	3.313
70.56	11.384
70.78	2.936
71	18.584
71.22	9.292
71.44	21.265
71.66	9.947
71.88	10.901
72.1	12.193
72.32	11.649
72.54	17.197
72.76	24.566
72.98	12.822
73.2	11.354
73.42	10.782
73.64	3.1
73.86	4.316
74.08	3.422
74.3	6.718
74.52	5.306
74.74	2.321
74.96	4.349
75.18	5.745
75.4	1.044
75.62	0.033
75.84	7.079
76.06	0.901
76.28	6.134
76.5	4.303
76.72	7.283
76.94	45.681
77.16	22.573
77.38	3.332
77.6	3.906
77.82	0.724
78.04	3.56
78.26	1.382
78.48	6.219
78.7	2.237
78.92	7.876
79.14	1.833
79.36	3.803
79.58	9.906
79.8	3.849
80.02	4.962
80.24	0.127
80.46	2.21
80.68	9.332
80.9	8.484
81.12	11.392
81.34	10.696
81.56	1.055
81.78	2.222
82	9.459
82.22	6.601
82.44	4.676
82.66	3.473
82.88	9.538
83.1	11.588
83.32	5.597
83.54	6.531
83.76	8.546
83.98	9.574
84.2	6.653
84.42	14.513
84.64	2.607
84.86	3.643
85.08	2.742
85.3	3.064
85.52	5.135
85.74	7.398
85.96	0.503
86.18	6.603
86.4	7.274
86.62	3.394
86.84	6.484
87.06	3.56
87.28	2.641
87.5	2.664
87.72	1.367
87.94	2.699
88.16	1.589
88.38	5.573
88.6	2.762
88.82	3.792
89.04	6.742
89.26	2.753
89.48	5.654
89.7	3.938
89.92	9.019
