Measurement: Powder, Xray Data XY Processed
Mineral: Senegalite
Rruff sample: R050239
Ideal chemistry: Al_2_PO_4_(OH)_3_H_2_O
Locality: Kourondicko iron ore (magnetite) deposit, Faleme River Basin, Senegal
Source: Marcus Origlieri
Description: Colorless prismatic crystals
Diffraction sample description: Powder
Measured chemistry: Al_2.00_P_1.00_O_4_(OH)_3_Â·H_2_O
Cell parameters: a: 7.6590(3) b: 9.6893(4) c: 7.5957(2) alpha: 90 beta: 90 gamma: 90 volume: 563.68(3) crystal system: orthorhombic
x	intensity
5	0
5.22	2.5701
5.44	7.53939
5.66	13.7746
5.88	1.40996
6.1	9.62087
6.32	5.4669
6.54	11.567
6.76	11.7216
6.98	13.2836
7.2	0.12438
7.42	0.855451
7.64	9.45078
7.86	14.9236
8.08	4.20275
8.3	3.08859
8.52	6.2595
8.74	9.58485
8.96	3.75399
9.18	6.66697
9.4	7.97258
9.62	9.16815
9.84	6.52549
10.06	4.99774
10.28	7.21373
10.5	5.37583
10.72	1.16282
10.94	8.35644
11.16	1.61367
11.38	18.9135
11.6	3.20606
11.82	16.17
12.04	10.3236
12.26	0.634095
12.48	2.65193
12.7	9.5323
12.92	7.31746
13.14	5.61836
13.36	7.61034
13.58	8.56458
13.8	2.32808
14.02	2.13938
14.24	1.58476
14.46	3.35262
14.68	0.276789
14.9	58.8332
15.12	1.48705
15.34	9.23668
15.56	2.68665
15.78	4.53151
16	8.33099
16.22	12.6377
16.44	605.575
16.66	11.3438
16.88	15.7088
17.1	8.75977
17.32	4.10646
17.54	19.1732
17.76	5.24822
17.98	7.43877
18.2	12.5446
18.42	10.6778
18.64	3.44409
18.86	390.349
19.08	1.60173
19.3	0.439666
19.52	4.52664
19.74	8.24298
19.96	2.40354
20.18	6.68412
20.4	10.7148
20.62	1.3678
20.84	4.05185
21.06	7.74692
21.28	2.52024
21.5	7.43123
21.72	578.352
21.94	8.74202
22.16	0.682208
22.38	5.6768
22.6	5.92352
22.82	4.94516
23.04	10.6723
23.26	870.751
23.48	48.6028
23.7	0.527677
23.92	6.14682
24.14	0.354845
24.36	0.852386
24.58	31.3446
24.8	196.966
25.02	29.4706
25.24	179.093
25.46	8.44633
25.68	10.9339
25.9	7.33073
26.12	5.65751
26.34	13.2552
26.56	5.41597
26.78	12.239
27	5.39764
27.22	7.62894
27.44	11.0414
27.66	47.8761
27.88	197.533
28.1	4.41904
28.32	8.24221
28.54	2.03975
28.76	14.5204
28.98	7.40778
29.2	0.378215
29.42	5.34756
29.64	14.2579
29.86	188.583
30.08	87.5627
30.3	10.1164
30.52	5.36216
30.74	8.75079
30.96	4.05962
31.18	2.32764
31.4	5.58415
31.62	8.78398
31.84	8.25526
32.06	46.2865
32.28	27.0343
32.5	2.15178
32.72	6.03434
32.94	0.847598
33.16	5.45418
33.38	1.50314
33.6	0.590836
33.82	1.18208
34.04	5.92823
34.26	12.7347
34.48	52.8969
34.7	2.16649
34.92	1.34404
35.14	3.63853
35.36	3.04099
35.58	5.66337
35.8	9.71272
36.02	3.56964
36.24	6.22583
36.46	3.29272
36.68	18.8384
36.9	14.4217
37.12	149.833
37.34	16.1621
37.56	4.69926
37.78	7.21805
38	3.09753
38.22	81.9156
38.44	157.376
38.66	30.6851
38.88	4.78216
39.1	22.3316
39.32	9.72004
39.54	3.98436
39.76	6.16453
39.98	9.56128
40.2	30.7282
40.42	3.38879
40.64	0.506392
40.86	60.0604
41.08	8.11279
41.3	7.35721
41.52	8.59188
41.74	19.717
41.96	74.08
42.18	5.29439
42.4	3.11175
42.62	8.02063
42.84	1.50573
43.06	6.54273
43.28	6.46981
43.5	9.5436
43.72	246.582
43.94	12.8146
44.16	4.67926
44.38	15.2433
44.6	8.98794
44.82	5.85036
45.04	3.26726
45.26	1.68408
45.48	23.7995
45.7	7.69109
45.92	97.4506
46.14	10.1549
46.36	12.8287
46.58	5.65383
46.8	50.1567
47.02	40.5866
47.24	132.168
47.46	44.3629
47.68	9.39539
47.9	1.46207
48.12	6.75767
48.34	5.90843
48.56	5.23018
48.78	6.81007
49	2.82613
49.22	3.41485
49.44	9.86509
49.66	6.55323
49.88	7.77838
50.1	11.5502
50.32	22.4691
50.54	22.2245
50.76	8.09294
50.98	5.81409
51.2	2.49668
51.42	2.55854
51.64	25.7964
51.86	42.0458
52.08	1.4671
52.3	1.8445
52.52	4.10835
52.74	6.35445
52.96	3.82789
53.18	7.10314
53.4	3.74015
53.62	20.2774
53.84	24.1861
54.06	6.33081
54.28	8.48723
54.5	30.9578
54.72	19.519
54.94	12.5257
55.16	11.5241
55.38	7.40283
55.6	0.372216
55.82	1.2931
56.04	0.099949
56.26	5.90856
56.48	7.46474
56.7	6.189
56.92	2.29067
57.14	51.3615
57.36	32.4217
57.58	16.1653
57.8	21.9517
58.02	8.92617
58.24	4.18547
58.46	5.51267
58.68	12.6411
58.9	15.8229
59.12	6.00434
59.34	10.4682
59.56	9.41127
59.78	18.7915
60	9.19801
60.22	14.0182
60.44	4.77032
60.66	2.15567
60.88	0.65258
61.1	6.51821
61.32	26.0515
61.54	23.619
61.76	102.025
61.98	12.3971
62.2	1.3889
62.42	9.39368
62.64	16.4504
62.86	5.40332
63.08	64.4375
63.3	17.8706
63.52	1.2713
63.74	14.6183
63.96	17.9367
64.18	16.1612
64.4	0.570179
64.62	7.86515
64.84	0.315177
65.06	8.79769
65.28	25.3213
65.5	44.6561
65.72	6.70799
65.94	2.63933
66.16	9.88633
66.38	9.28696
66.6	7.61017
66.82	5.80707
67.04	4.79129
67.26	1.74167
67.48	11.0637
67.7	8.79423
67.92	1.65839
68.14	5.55247
68.36	5.22056
68.58	8.01264
68.8	18.4782
69.02	8.25272
69.24	15.1159
69.46	7.05612
69.68	9.36767
69.9	19.4136
70.12	0.192325
70.34	6.21142
70.56	3.06582
70.78	10.3886
71	3.05409
71.22	1.29838
71.44	4.50259
71.66	2.6226
71.88	3.59626
72.1	1.48696
72.32	7.25344
72.54	0.271777
72.76	9.43392
72.98	6.5229
73.2	2.23539
73.42	8.11073
73.64	4.35025
73.86	14.1765
74.08	11.2489
74.3	19.7176
74.52	3.21187
74.74	6.34265
74.96	16.7087
75.18	11.2057
75.4	1.64838
75.62	4.02874
75.84	5.9883
76.06	2.86404
76.28	8.27363
76.5	2.22411
76.72	9.42929
76.94	5.38096
77.16	8.29589
77.38	6.08903
77.6	3.69529
77.82	3.35172
78.04	4.97891
78.26	0.926225
78.48	11.761
78.7	21.3072
78.92	9.17612
79.14	23.6865
79.36	16.4491
79.58	7.47199
79.8	10.1347
80.02	19.3066
80.24	11.3339
80.46	7.40433
80.68	3.43569
80.9	2.3146
81.12	10.383
81.34	8.5219
81.56	14.5595
81.78	5.47325
82	11.321
82.22	4.09832
82.44	1.29603
82.66	4.49689
82.88	16.1286
83.1	6.50644
83.32	5.97614
83.54	2.42591
83.76	4.58657
83.98	7.90528
84.2	7.14325
84.42	5.35743
84.64	3.50087
84.86	2.37418
85.08	4.24
85.3	4.09814
85.52	2.79634
85.74	6.57304
85.96	6.19754
86.18	6.97374
86.4	2.67732
86.62	4.5477
86.84	3.25024
87.06	7.03946
87.28	17.9379
87.5	18.977
87.72	1.16912
87.94	5.79761
88.16	2.95142
88.38	2.2506
88.6	3.57321
88.82	0.057845
89.04	7.28906
89.26	11.85
89.48	2.30463
89.7	3.78475
89.92	5.66001
