Measurement: Powder, Xray Data XY Processed
Mineral: Sepiolite
Rruff sample: R070311
Ideal chemistry: Mg_4_Si_6_O_15_(OH)_2_6H_2_O
Locality: Miller Quartz, near Santa Cruz, Santa Cruz County, California, USA
Source: James Shigley
Description: Tan colored compact fibrous
Diffraction sample description: Powder
Cell parameters: a: 13.381(2) b: 27.033(7) c: 5.012(2) alpha: 90 beta: 90 gamma: 90 volume: 1813.0(9) crystal system: orthorhombic
x	intensity
5	0
5.22	22.5418
5.44	36.5441
5.66	21.9434
5.88	16.3486
6.1	43.5328
6.32	47.4493
6.54	76.2968
6.76	132.924
6.98	325.893
7.2	1741.11
7.42	2860.22
7.64	407.752
7.86	80.2947
8.08	26.4129
8.3	12.8646
8.52	16.0284
8.74	45.0945
8.96	112.287
9.18	288.298
9.4	743.552
9.62	270.661
9.84	63.3466
10.06	11.1527
10.28	22.2191
10.5	25.9148
10.72	27.3894
10.94	26.3153
11.16	33.0132
11.38	7.10719
11.6	25.2565
11.82	42.5213
12.04	20.2546
12.26	14.0622
12.48	19.6121
12.7	18.0889
12.92	53.5762
13.14	126.37
13.36	75.2813
13.58	26.865
13.8	23.451
14.02	8.80508
14.24	11.5141
14.46	9.55664
14.68	31.2555
14.9	19.5767
15.12	37.3098
15.34	29.2873
15.56	20.9672
15.78	18.787
16	28.5055
16.22	33.2874
16.44	18.1547
16.66	12.9388
16.88	1.86706
17.1	19.1246
17.32	11.6446
17.54	21.7947
17.76	6.54094
17.98	4.54219
18.2	28.1632
18.42	18.3484
18.64	13.8215
18.86	79.3245
19.08	34.1055
19.3	6.92277
19.52	26.6366
19.74	53.9244
19.96	16.2757
20.18	72.9943
20.4	2.30102
20.62	26.3171
20.84	9.51363
21.06	13.7478
21.28	1.71363
21.5	16.4462
21.72	28.5314
21.94	14.9834
22.16	24.6546
22.38	13.1005
22.6	25.3696
22.82	8.93877
23.04	20.7742
23.26	13.6137
23.48	10.6099
23.7	31.9967
23.92	31.0121
24.14	7.50203
24.36	16.3329
24.58	12.9542
24.8	11.0917
25.02	38.1644
25.24	4.70016
25.46	22.784
25.68	16.2743
25.9	8.5269
26.12	15.8921
26.34	48.8858
26.56	171.702
26.78	146.396
27	30.0362
27.22	0.467674
27.44	30.2558
27.66	11.7728
27.88	29.6496
28.1	61.9832
28.32	83.0133
28.54	221.557
28.76	123.432
28.98	41.1231
29.2	21.4996
29.42	22.0815
29.64	7.00279
29.86	24.0197
30.08	29.8236
30.3	10.3297
30.52	26.524
30.74	8.65623
30.96	6.7874
31.18	21.4809
31.4	11.4927
31.62	8.6927
31.84	0.057785
32.06	11.5796
32.28	22.0133
32.5	13.733
32.72	7.47735
32.94	12.8227
33.16	34.6476
33.38	22.0312
33.6	48.0425
33.82	23.5505
34.04	17.1674
34.26	11.3462
34.48	0.127693
34.7	9.2736
34.92	22.9827
35.14	28.3458
35.36	11.223
35.58	10.9999
35.8	16.8446
36.02	9.55132
36.24	33.991
36.46	20.5412
36.68	10.6685
36.9	0.446922
37.12	10.7374
37.34	19.2552
37.56	10.0996
37.78	18.9697
38	6.08525
38.22	7.48457
38.44	11.4071
38.66	30.1544
38.88	20.9924
39.1	0.220188
39.32	15.2531
39.54	9.86119
39.76	6.91686
39.98	12.0987
40.2	27.5336
40.42	27.8905
40.64	22.5446
40.86	0.214886
41.08	12.3202
41.3	15.458
41.52	8.5473
41.74	20.0056
41.96	8.21548
42.18	37.1001
42.4	1.66198
42.62	1.3114
42.84	5.81129
43.06	19.3795
43.28	22.3059
43.5	27.3699
43.72	5.69182
43.94	12.428
44.16	7.13304
44.38	8.64269
44.6	8.71037
44.82	12.7195
45.04	5.86308
45.26	6.52776
45.48	10.4216
45.7	19.1999
45.92	4.49801
46.14	13.4331
46.36	13.1604
46.58	8.40674
46.8	1.26422
47.02	11.7315
47.24	25.0832
47.46	0.355049
47.68	21.8296
47.9	15.4922
48.12	17.6163
48.34	1.39771
48.56	20.2141
48.78	12.9517
49	18.0166
49.22	10.9991
49.44	16.6004
49.66	14.1972
49.88	16.537
50.1	7.09981
50.32	2.14156
50.54	3.14889
50.76	2.90079
50.98	11.4161
51.2	2.51295
51.42	3.44545
51.64	7.82151
51.86	4.01389
52.08	18.0292
52.3	7.00928
52.52	9.47258
52.74	6.85211
52.96	7.73774
53.18	2.19187
53.4	4.16653
53.62	0.345272
53.84	6.59423
54.06	3.47668
54.28	11.8813
54.5	19.6725
54.72	6.33972
54.94	4.58216
55.16	2.58723
55.38	18.4173
55.6	4.63572
55.82	8.84741
56.04	12.1333
56.26	9.15958
56.48	12.9895
56.7	21.2614
56.92	12.5625
57.14	7.21447
57.36	5.88347
57.58	15.8423
57.8	15.67
58.02	29.6774
58.24	3.6296
58.46	24.6971
58.68	4.12656
58.9	4.40929
59.12	13.824
59.34	8.15904
59.56	7.53012
59.78	8.72056
60	18.2348
60.22	16.8463
60.44	5.26453
60.66	7.52899
60.88	8.62894
61.1	6.96009
61.32	17.1402
61.54	16.6953
61.76	6.07505
61.98	7.18005
62.2	7.327
62.42	7.82454
62.64	9.8736
62.86	7.8515
63.08	10.4258
63.3	10.9503
63.52	13.6486
63.74	6.58149
63.96	7.89254
64.18	0.249617
64.4	8.34415
64.62	20.5491
64.84	14.5112
65.06	9.6331
65.28	5.3514
65.5	21.1216
65.72	2.65532
65.94	3.94493
66.16	11.8409
66.38	10.6425
66.6	18.7101
66.82	2.35927
67.04	5.48249
67.26	15.6416
67.48	8.98146
67.7	6.48925
67.92	8.45103
68.14	16.2719
68.36	17.2007
68.58	15.5473
68.8	12.8713
69.02	8.10197
69.24	0.036453
69.46	7.05294
69.68	0.093372
69.9	2.7687
70.12	4.02663
70.34	5.35854
70.56	7.85461
70.78	7.43324
71	7.13533
71.22	2.99113
71.44	11.9837
71.66	9.04012
71.88	10.0975
72.1	10.9506
72.32	9.55157
72.54	11.8584
72.76	24.0013
72.98	6.11043
73.2	19.6631
73.42	13.1871
73.64	4.25073
73.86	14.3149
74.08	0.114195
74.3	9.26083
74.52	6.62853
74.74	3.01154
74.96	4.08923
75.18	16.889
75.4	6.01311
75.62	11.1564
75.84	11.0948
76.06	7.67511
76.28	24.3751
76.5	9.16804
76.72	15.0279
76.94	4.96984
77.16	7.01009
77.38	3.58693
77.6	6.24174
77.82	6.89049
78.04	0.055447
78.26	0.973021
78.48	10.2815
78.7	8.54143
78.92	2.49863
79.14	1.92928
79.36	2.07363
79.58	10.041
79.8	4.03113
80.02	5.67383
80.24	4.75859
80.46	11.9555
80.68	8.05526
80.9	8.82205
81.12	7.74621
81.34	0.812944
81.56	10.7947
81.78	11.8763
82	17.0573
82.22	5.61439
82.44	6.55834
82.66	6.48578
82.88	6.65693
83.1	3.64957
83.32	3.83959
83.54	5.86149
83.76	15.2197
83.98	1.10001
84.2	10.1904
84.42	9.75231
84.64	10.4752
84.86	7.70449
85.08	9.76411
85.3	13.8872
85.52	8.18272
85.74	10.0547
85.96	9.75528
86.18	8.79809
86.4	1.5012
86.62	2.54715
86.84	10.5872
87.06	8.69364
87.28	12.4537
87.5	4.3014
87.72	13.0103
87.94	0.223495
88.16	15.4044
88.38	9.56459
88.6	13.6816
88.82	4.86148
89.04	14.2645
89.26	17.5008
89.48	7.20793
89.7	10.5092
89.92	9.56007
