Measurement: Powder, Xray Data XY Processed
Mineral: Serandite
Rruff sample: R050261
Ideal chemistry: NaMn^2+^_2_Si_3_O_8_(OH)
Locality: Mont Saint-Hilaire, Rouville County, Quebec, Canada
Source: Marcus Origlieri
Description: Orange tabular single crystal associated with aegirine and microcline
Diffraction sample description: Powder
Measured chemistry: Na_0.96_(Mn_0.92_Ca_0.06_Fe_0.01_)_2_Si_3.03_O_8_(OH)
Cell parameters: a: 7.713(2) b: 6.897(6) c: 6.7534(4) alpha: 90.51(3) beta: 94.06(1) gamma: 102.78(6) volume: 349.4(0) crystal system: triclinic
x	intensity
5	0
5.22	23.394
5.44	8.619
5.66	4.036
5.88	16.861
6.1	17.137
6.32	7.93
6.54	17.147
6.76	33.209
6.98	19.133
7.2	7.483
7.42	6.346
7.64	24.235
7.86	1.905
8.08	10.359
8.3	7.43
8.52	12.907
8.74	10.031
8.96	9.042
9.18	17.241
9.4	0.699
9.62	9.548
9.84	18.633
10.06	14.845
10.28	12.679
10.5	26.832
10.72	10.006
10.94	22.838
11.16	13.996
11.38	4.628
11.6	12.066
11.82	101.814
12.04	11.557
12.26	8.98
12.48	11.709
12.7	5.333
12.92	13.497
13.14	79.644
13.36	16.136
13.58	26.874
13.8	1.675
14.02	11.516
14.24	11.514
14.46	12.022
14.68	24.468
14.9	11.675
15.12	6.733
15.34	2.854
15.56	10.136
15.78	8.779
16	2.82
16.22	2.334
16.44	23.1
16.66	18.086
16.88	8.047
17.1	9.809
17.32	2.192
17.54	6.886
17.76	16.149
17.98	6.888
18.2	14.173
18.42	34.235
18.64	16.589
18.86	10.232
19.08	5.794
19.3	9.171
19.52	6.358
19.74	17.696
19.96	13.781
20.18	5.386
20.4	15.459
20.62	11.446
20.84	7.491
21.06	5.347
21.28	29.332
21.5	15.744
21.72	2.689
21.94	8.102
22.16	12.879
22.38	19.635
22.6	18.371
22.82	13.298
23.04	22.883
23.26	11.933
23.48	6.429
23.7	46.112
23.92	18.926
24.14	4.973
24.36	4.95
24.58	14.216
24.8	19.391
25.02	1.404
25.24	12.241
25.46	18.082
25.68	0.67
25.9	18.268
26.12	4.984
26.34	19.449
26.56	34.482
26.78	6.621
27	17.867
27.22	7.229
27.44	19.87
27.66	9.415
27.88	8.109
28.1	123.897
28.32	161.073
28.54	3.362
28.76	3.915
28.98	7.001
29.2	4.072
29.42	35.471
29.64	15.412
29.86	100.058
30.08	38.058
30.3	19.237
30.52	5.626
30.74	16.171
30.96	6.275
31.18	2.613
31.4	54.663
31.62	54.06
31.84	22.099
32.06	11.697
32.28	0.13
32.5	2.622
32.72	16.08
32.94	10.372
33.16	6.344
33.38	14.188
33.6	12.069
33.82	37.861
34.04	15.957
34.26	35.371
34.48	140.524
34.7	4.071
34.92	9.977
35.14	4.26
35.36	18.745
35.58	23.164
35.8	32.177
36.02	53.004
36.24	22.638
36.46	8.899
36.68	4.052
36.9	13.95
37.12	2.007
37.34	11.999
37.56	1.837
37.78	9.445
38	19.027
38.22	29.563
38.44	22.002
38.66	1.107
38.88	4.009
39.1	0.402
39.32	3.362
39.54	10.232
39.76	14.845
39.98	28.56
40.2	16.35
40.42	0.045
40.64	10.574
40.86	42.028
41.08	48.761
41.3	28.816
41.52	20.997
41.74	1.098
41.96	9.015
42.18	4.438
42.4	18.678
42.62	14.084
42.84	38.569
43.06	24.112
43.28	20.196
43.5	7.086
43.72	6.513
43.94	4.179
44.16	18.536
44.38	0.063
44.6	1.91
44.82	15.517
45.04	14.109
45.26	11.02
45.48	22.118
45.7	17.5
45.92	21.105
46.14	2.911
46.36	19.471
46.58	7.833
46.8	22.965
47.02	16.593
47.24	23.43
47.46	0.516
47.68	21.092
47.9	2.156
48.12	14.349
48.34	11.125
48.56	12.539
48.78	27.458
49	1.522
49.22	8.025
49.44	9.21
49.66	2.085
49.88	14.208
50.1	11.671
50.32	0.795
50.54	16.539
50.76	6.227
50.98	1.773
51.2	15.224
51.42	24.42
51.64	1.039
51.86	23.679
52.08	15.694
52.3	0.174
52.52	6.801
52.74	22.927
52.96	18.321
53.18	10.789
53.4	13.26
53.62	2.43
53.84	16.62
54.06	10.17
54.28	31.088
54.5	67.999
54.72	19.731
54.94	24.168
55.16	4.703
55.38	20.228
55.6	9.214
55.82	36.05
56.04	36.772
56.26	18.21
56.48	6.688
56.7	3.788
56.92	7.688
57.14	24.02
57.36	3.591
57.58	7.153
57.8	0.487
58.02	11.631
58.24	14.705
58.46	27.814
58.68	23.257
58.9	9.051
59.12	22.605
59.34	4.008
59.56	15.307
59.78	10.983
60	13.745
60.22	9.644
60.44	17.679
60.66	0.335
60.88	14.56
61.1	10.068
61.32	1.473
61.54	10.202
61.76	19.026
61.98	20.44
62.2	9.388
62.42	32.313
62.64	18.08
62.86	25.064
63.08	20.291
63.3	4.153
63.52	2.695
63.74	7.486
63.96	36.087
64.18	10.113
64.4	29.867
64.62	22.831
64.84	8.083
65.06	28.163
65.28	5.976
65.5	27.15
65.72	9.517
65.94	9.018
66.16	10.627
66.38	0.706
66.6	14.728
66.82	10.428
67.04	13.884
67.26	2.009
67.48	1.608
67.7	0.594
67.92	18.041
68.14	9.995
68.36	14.817
68.58	13.478
68.8	1.788
69.02	2.255
69.24	25.103
69.46	10.747
69.68	23.608
69.9	9.277
70.12	4.4
70.34	17.163
70.56	21.075
70.78	15.108
71	0.319
71.22	8.532
71.44	18.438
71.66	11.696
71.88	6.799
72.1	6.701
72.32	2.415
72.54	11.513
72.76	8.899
72.98	7.088
73.2	8.633
73.42	12.134
73.64	19.475
73.86	17.029
74.08	8.083
74.3	26.825
74.52	14.112
74.74	9.048
74.96	14.843
75.18	13.388
75.4	8.267
75.62	17.956
75.84	5.474
76.06	23.166
76.28	6.831
76.5	15.036
76.72	1.474
76.94	9.658
77.16	4.889
77.38	1.91
77.6	1.2
77.82	6.625
78.04	13.356
78.26	20.146
78.48	8.19
78.7	16.52
78.92	13.203
79.14	31.193
79.36	11.059
79.58	6.691
79.8	10.861
80.02	19.412
80.24	36.24
80.46	14.438
80.68	15.111
80.9	5.087
81.12	2.186
81.34	8.185
81.56	5.625
81.78	9.052
82	11.482
82.22	11.789
82.44	10.235
82.66	14.004
82.88	20.929
83.1	25.783
83.32	10.015
83.54	14.13
83.76	20.297
83.98	9.798
84.2	1.085
84.42	3.343
84.64	8.289
84.86	16.841
85.08	12.977
85.3	8.119
85.52	20.978
85.74	28.537
85.96	21.357
86.18	4.917
86.4	7.553
86.62	10.949
86.84	30.227
87.06	7.185
87.28	10.644
87.5	16.667
87.72	7.595
87.94	12.548
88.16	15.263
88.38	2.563
88.6	11.22
88.82	3.488
89.04	6.116
89.26	15.168
89.48	7.111
89.7	10.825
89.92	9.549
