Measurement: Powder, Xray Data XY Processed
Mineral: Shortite
Rruff sample: R050248
Ideal chemistry: Na_2_Ca_2_(CO_3_)_3_
Locality: Stauffer mine, Green River, Wyoming, USA
Source: Marcus Origlieri
Description: Colorless wedge-shaped single crystal
Diffraction sample description: Powder
Measured chemistry: Na_2.00_Ca_2.00_(CO_3_)_3_ ; CO2 not measured but estimated by difference and stoichiometry.
Cell parameters: a: 4.9554(2) b: 11.0420(5) c: 7.1177(2) alpha: 90 beta: 90 gamma: 90 volume: 389.46(2) crystal system: orthorhombic
x	intensity
5	0
5.22	6.813
5.44	4.965
5.66	8.417
5.88	8.288
6.1	7.256
6.32	15.811
6.54	1.408
6.76	5.877
6.98	11.465
7.2	20.077
7.42	7.48
7.64	0.05
7.86	10.113
8.08	8.462
8.3	7.442
8.52	4.622
8.74	11.928
8.96	3.244
9.18	9.424
9.4	7.562
9.62	3.642
9.84	4.952
10.06	7.942
10.28	12.098
10.5	2.837
10.72	5.403
10.94	2.625
11.16	4.551
11.38	3.495
11.6	1.576
11.82	6.372
12.04	10.517
12.26	2.752
12.48	2.946
12.7	5.077
12.92	6.305
13.14	2.128
13.36	12.025
13.58	3.039
13.8	0.045
14.02	1.963
14.24	8.362
14.46	3.475
14.68	20.29
14.9	50.137
15.12	11.003
15.34	0.829
15.56	10.195
15.78	11.366
16	73.567
16.22	18.721
16.44	1.204
16.66	5.234
16.88	2.338
17.1	2.396
17.32	7.58
17.54	13.849
17.76	6.152
17.98	136.352
18.2	9.436
18.42	4.69
18.64	0.124
18.86	1.803
19.08	4.693
19.3	6.958
19.52	1.724
19.74	6.599
19.96	3.524
20.18	5.414
20.4	5.445
20.62	5.459
20.84	7.292
21.06	3.254
21.28	1.268
21.5	3.94
21.72	1.206
21.94	0.037
22.16	0.408
22.38	6.439
22.6	3.283
22.82	1.259
23.04	3.096
23.26	55.922
23.48	17.789
23.7	4.518
23.92	2.486
24.14	11.164
24.36	3.241
24.58	4.635
24.8	0.241
25.02	100.894
25.24	7.05
25.46	3.236
25.68	8.336
25.9	3.371
26.12	6.398
26.34	1.42
26.56	5.363
26.78	0.236
27	3.986
27.22	8.096
27.44	8.119
27.66	14.116
27.88	8.987
28.1	2.974
28.32	0.906
28.54	6.212
28.76	0.183
28.98	6.078
29.2	4.19
29.42	6.24
29.64	4.258
29.86	69.924
30.08	8.852
30.3	1.092
30.52	0.81
30.74	1.446
30.96	90.367
31.18	9.608
31.4	4.553
31.62	8.343
31.84	3.06
32.06	9.045
32.28	8.241
32.5	46.319
32.72	11.435
32.94	56.452
33.16	1.046
33.38	4.049
33.6	5.713
33.82	2.641
34.04	6.53
34.26	7.392
34.48	4.257
34.7	3.948
34.92	35.437
35.14	171.262
35.36	4.924
35.58	2.678
35.8	9.795
36.02	6.995
36.24	121.118
36.46	20.395
36.68	1.839
36.9	1.148
37.12	3.382
37.34	8.791
37.56	3.936
37.78	7.042
38	5.042
38.22	1.778
38.44	3.562
38.66	7.645
38.88	54.493
39.1	3.162
39.32	42.933
39.54	8.763
39.76	7.621
39.98	5.647
40.2	1.648
40.42	4.669
40.64	0.232
40.86	11.935
41.08	2.238
41.3	27.505
41.52	83.327
41.74	12.392
41.96	1.325
42.18	4.196
42.4	0.772
42.62	1.5
42.84	123.674
43.06	46.551
43.28	8.282
43.5	3.404
43.72	0.119
43.94	3.36
44.16	8.024
44.38	10.728
44.6	44.462
44.82	23.17
45.04	4.638
45.26	6.32
45.48	122.683
45.7	20.694
45.92	50.797
46.14	12.184
46.36	3.895
46.58	1.209
46.8	22.601
47.02	2.942
47.24	6.492
47.46	9.233
47.68	34.692
47.9	1.649
48.12	2.546
48.34	2.644
48.56	2.5
48.78	4.517
49	11.537
49.22	28.459
49.44	83.419
49.66	15.56
49.88	4.166
50.1	6.101
50.32	3.216
50.54	1.394
50.76	3.812
50.98	1.977
51.2	8.325
51.42	11.461
51.64	2.678
51.86	0.935
52.08	3.636
52.3	1.821
52.52	1.05
52.74	4.976
52.96	1.788
53.18	8.398
53.4	5.18
53.62	3.018
53.84	4.781
54.06	16.427
54.28	39.364
54.5	10.286
54.72	4.951
54.94	12.841
55.16	2.74
55.38	0.681
55.6	17.977
55.82	7.772
56.04	5.765
56.26	17.773
56.48	7.756
56.7	0.788
56.92	21.833
57.14	9.924
57.36	54.996
57.58	18.559
57.8	8.859
58.02	9.932
58.24	4.23
58.46	4.512
58.68	1.722
58.9	6.855
59.12	3.892
59.34	1.075
59.56	13.027
59.78	7.139
60	5.84
60.22	7.974
60.44	3.03
60.66	0.015
60.88	0.108
61.1	0.244
61.32	3.399
61.54	0.419
61.76	6.429
61.98	7.191
62.2	8.179
62.42	6.127
62.64	10.979
62.86	6.135
63.08	9.077
63.3	3.956
63.52	0.774
63.74	5.605
63.96	6.587
64.18	3.55
64.4	36.539
64.62	13.557
64.84	1.614
65.06	4.876
65.28	6.737
65.5	11.782
65.72	0.116
65.94	6.994
66.16	2.161
66.38	2.305
66.6	3.416
66.82	12.591
67.04	11.724
67.26	0.838
67.48	3.503
67.7	0.621
67.92	6.313
68.14	6.283
68.36	8.238
68.58	1.111
68.8	6.036
69.02	4.386
69.24	5.332
69.46	3.221
69.68	7.117
69.9	7.97
70.12	1.228
70.34	3.267
70.56	6.256
70.78	8.256
71	1.209
71.22	4.187
71.44	0.955
71.66	5.153
71.88	1.203
72.1	1.196
72.32	7.305
72.54	4.99
72.76	3.997
72.98	3.978
73.2	0.964
73.42	3.008
73.64	3.042
73.86	7.174
74.08	13.919
74.3	8.046
74.52	7.22
74.74	8.191
74.96	2.507
75.18	8.758
75.4	3.851
75.62	6.921
75.84	4.88
76.06	2.928
76.28	4.902
76.5	1.941
76.72	6.81
76.94	20.737
77.16	9.743
77.38	1.463
77.6	0.36
77.82	9.318
78.04	10.285
78.26	4.25
78.48	3.287
78.7	4.33
78.92	2.518
79.14	10.513
79.36	7.402
79.58	4.512
79.8	7.61
80.02	3.651
80.24	3.704
80.46	3.911
80.68	3.289
80.9	3.194
81.12	0.027
81.34	9.815
81.56	5.686
81.78	2.572
82	3.183
82.22	1.066
82.44	5.683
82.66	2.458
82.88	6.119
83.1	16.813
83.32	8.861
83.54	9.654
83.76	5.766
83.98	6.027
84.2	4.056
84.42	1.305
84.64	3.742
84.86	1.952
85.08	3.296
85.3	5.373
85.52	4.455
85.74	4.571
85.96	2.802
86.18	6.852
86.4	4.927
86.62	1.995
86.84	7.297
87.06	0.164
87.28	6.22
87.5	5.328
87.72	2.446
87.94	3.641
88.16	5.657
88.38	4.773
88.6	5.847
88.82	0.658
89.04	2.569
89.26	4.556
89.48	0.315
89.7	2.184
89.92	8.855
