Measurement: Powder, Xray Data XY Processed
Mineral: Siderite
Rruff sample: R050262
Ideal chemistry: Fe^2+^CO_3_
Locality: Panasqueira mine, Barroca Grande, Beira Baixa, Portugal
Source: Marcus Origlieri
Description: Group of yellowish brown flattened twinned crystals
Diffraction sample description: Powder
Measured chemistry: (Fe_0.71_Mg_0.24_Mn_0.05_)_Σ=1_CO_3_ ; light :  (Fe_0.60_Mg_0.36_Mn_0.04_)_Σ=1_CO_3_ ; intermediate : (Fe_0.54_Mg_0.42_Mn_0.04_)_Σ=1_CO_3_ ; darker :  (Mg_0.54_Fe_0.42_Mn_0.04_)_Σ=1_CO_3_ darkest = magnesite
Cell parameters: a: 4.6774(9) b: 4.6774(9) c: 15.30(2) alpha: 90 beta: 90 gamma: 120 volume: 289.9(0) crystal system: hexagonal
x	intensity
5	0
5.22	30.202
5.44	23.0496
5.66	13.9716
5.88	15.4586
6.1	28.3137
6.32	54.822
6.54	38.4007
6.76	16.8691
6.98	24.8557
7.2	54.1443
7.42	34.5023
7.64	46.2741
7.86	24.6676
8.08	8.96565
8.3	31.2396
8.52	36.4222
8.74	35.2571
8.96	38.9244
9.18	34.2102
9.4	22.9761
9.62	28.4653
9.84	13.8378
10.06	7.2672
10.28	26.9474
10.5	19.907
10.72	4.74358
10.94	31.6755
11.16	37.8551
11.38	38.8201
11.6	30.921
11.82	4.35835
12.04	22.7261
12.26	20.5061
12.48	2.78449
12.7	25.0194
12.92	37.3769
13.14	19.2775
13.36	18.1563
13.58	23.3854
13.8	25.0156
14.02	31.192
14.24	26.1956
14.46	12.618
14.68	15.9287
14.9	62.8954
15.12	22.5966
15.34	37.8575
15.56	29.5589
15.78	27.1907
16	13.1174
16.22	21.379
16.44	33.2498
16.66	17.0882
16.88	15.7009
17.1	16.2441
17.32	36.2625
17.54	21.0314
17.76	13.3601
17.98	21.5338
18.2	26.9905
18.42	23.1978
18.64	25.1512
18.86	35.1321
19.08	22.8173
19.3	61.1967
19.52	9.91011
19.74	39.4977
19.96	32.0479
20.18	22.251
20.4	27.2786
20.62	41.3262
20.84	23.9097
21.06	28.2784
21.28	41.9331
21.5	17.2886
21.72	19.7881
21.94	22.7284
22.16	17.9236
22.38	13.2741
22.6	18.7432
22.82	13.1805
23.04	30.8104
23.26	18.7203
23.48	4.99925
23.7	35.1029
23.92	8.8605
24.14	12.7302
24.36	15.0519
24.58	13.8574
24.8	83.8797
25.02	44.0876
25.24	26.7052
25.46	5.3723
25.68	4.72685
25.9	29.7499
26.12	6.95664
26.34	18.8682
26.56	17.1864
26.78	12.9945
27	6.53453
27.22	11.7224
27.44	17.5393
27.66	12.6343
27.88	39.1914
28.1	25.9095
28.32	8.94916
28.54	26.2019
28.76	35.724
28.98	22.1843
29.2	25.2209
29.42	50.302
29.64	31.1451
29.86	11.758
30.08	27.3907
30.3	7.69339
30.52	52.5324
30.74	32.01
30.96	26.5112
31.18	16.1009
31.4	22.5461
31.62	13.2389
31.84	22.1101
32.06	119.351
32.28	652.934
32.5	91.4222
32.72	24.3473
32.94	27.1876
33.16	11.8762
33.38	26.4831
33.6	12.2793
33.82	15.6878
34.04	8.12376
34.26	24.5938
34.48	25.4868
34.7	34.6627
34.92	21.0694
35.14	30.6971
35.36	25.3363
35.58	21.8215
35.8	13.1538
36.02	11.1611
36.24	18.1905
36.46	15.2924
36.68	47.4028
36.9	27.6601
37.12	23.2776
37.34	15.6213
37.56	29.8339
37.78	33.905
38	16.1055
38.22	16.5017
38.44	62.4471
38.66	49.682
38.88	33.9746
39.1	17.9031
39.32	30.1901
39.54	19.9199
39.76	18.4031
39.98	37.9859
40.2	15.7544
40.42	42.3897
40.64	2.85571
40.86	11.0717
41.08	15.5434
41.3	33.8313
41.52	25.1818
41.74	9.50252
41.96	38.3861
42.18	41.9302
42.4	53.2839
42.62	99.4695
42.84	37.7186
43.06	17.2942
43.28	28.6298
43.5	35.5538
43.72	10.3616
43.94	21.0629
44.16	50.7227
44.38	41.0014
44.6	26.8479
44.82	5.65308
45.04	21.9491
45.26	21.0749
45.48	25.6322
45.7	29.8306
45.92	1.87089
46.14	22.6028
46.36	64.0146
46.58	53.1496
46.8	21.2453
47.02	12.2814
47.24	12.4323
47.46	3.05888
47.68	32.2274
47.9	61.6558
48.12	21.9468
48.34	1.91257
48.56	12.3441
48.78	6.42505
49	37.1761
49.22	19.1904
49.44	25.5446
49.66	22.5987
49.88	14.5749
50.1	52.5833
50.32	16.9148
50.54	38.051
50.76	10.2664
50.98	45.6168
51.2	35.3028
51.42	26.9877
51.64	17.5742
51.86	44.3866
52.08	1.0697
52.3	7.39722
52.52	44.9116
52.74	21.6209
52.96	93.7622
53.18	141.859
53.4	68.1948
53.62	24.1699
53.84	33.2993
54.06	24.2814
54.28	34.9763
54.5	6.76172
54.72	21.0594
54.94	15.8756
55.16	30.4049
55.38	16.5199
55.6	48.0976
55.82	24.136
56.04	34.959
56.26	32.9569
56.48	27.23
56.7	38.6805
56.92	23.2138
57.14	34.9029
57.36	34.7207
57.58	15.0203
57.8	31.5186
58.02	20.4157
58.24	22.9406
58.46	21.8273
58.68	13.0677
58.9	16.3244
59.12	21.4668
59.34	54.9342
59.56	11.7903
59.78	9.41696
60	20.1298
60.22	2.11388
60.44	39.3027
60.66	44.2918
60.88	28.0745
61.1	8.89429
61.32	18.7
61.54	20.7627
61.76	40.6511
61.98	31.6608
62.2	1.28075
62.42	10.2138
62.64	15.0433
62.86	23.5811
63.08	19.2449
63.3	1.54871
63.52	4.90407
63.74	10.0661
63.96	31.3957
64.18	3.26468
64.4	1.56844
64.62	14.884
64.84	13.1531
65.06	38.546
65.28	36.0657
65.5	44.2301
65.72	45.6443
65.94	6.93546
66.16	19.951
66.38	36.1706
66.6	6.69319
66.82	16.1707
67.04	39.4786
67.26	41.5477
67.48	23.1902
67.7	19.4039
67.92	24.9959
68.14	19.2277
68.36	23.342
68.58	4.86514
68.8	0.268524
69.02	16.3393
69.24	32.7067
69.46	49.1531
69.68	22.1836
69.9	9.40269
70.12	36.6671
70.34	31.8945
70.56	8.06441
70.78	0.639618
71	1.05461
71.22	43.5399
71.44	12.7032
71.66	9.50555
71.88	36.6911
72.1	6.59447
72.32	31.3253
72.54	16.5433
72.76	24.554
72.98	35.7779
73.2	15.3069
73.42	26.1081
73.64	27.2402
73.86	33.1853
74.08	22.8388
74.3	28.0717
74.52	17.249
74.74	41.6152
74.96	10.301
75.18	11.5456
75.4	13.9198
75.62	20.4775
75.84	39.3014
76.06	39.66
76.28	40.8358
76.5	25.3504
76.72	4.68265
76.94	7.55177
77.16	3.85463
77.38	3.90086
77.6	26.0771
77.82	47.1971
78.04	22.9402
78.26	2.26558
78.48	2.09303
78.7	37.5709
78.92	8.03673
79.14	26.3624
79.36	46.9953
79.58	39.7724
79.8	5.81004
80.02	27.053
80.24	20.7012
80.46	26.3219
80.68	27.2279
80.9	19.8039
81.12	4.24028
81.34	40.0919
81.56	2.99113
81.78	21.0176
82	9.92383
82.22	17.3322
82.44	33.3541
82.66	28.2412
82.88	25.4204
83.1	28.6922
83.32	23.6427
83.54	34.1685
83.76	2.79332
83.98	11.0968
84.2	35.2338
84.42	30.8536
84.64	43.5105
84.86	10.0884
85.08	35.616
85.3	34.6446
85.52	20.095
85.74	3.17545
85.96	10.7629
86.18	13.8616
86.4	18.1329
86.62	28.3518
86.84	41.9882
87.06	27.6788
87.28	42.0378
87.5	11.3586
87.72	17.1001
87.94	24.5929
88.16	3.14786
88.38	29.7093
88.6	51.0725
88.82	41.4972
89.04	15.8097
89.26	23.9472
89.48	24.6698
89.7	28.3795
89.92	22.9662
