Measurement: Powder, Xray Data XY Processed
Mineral: Siderite
Rruff sample: R050349
Ideal chemistry: Fe^2+^CO_3_
Locality: Litchfield County, Connecticut, USA
Source: California Institute of Technology
Description: Grayish brown rhombohedral cleavage fragment
Diffraction sample description: Powder
Measured chemistry: (Fe_0.83_Mg_0.09_Mn_0.05_Ca_0.01_)_Î£=0.98_CO_3_
Cell parameters: a: 4.6868(5) b: 4.6868(5) c: 15.340(8) alpha: 90. beta: 90. gamma: 120. volume: 291.8(1) crystal system: hexagonal
x	intensity
5	0
5.22	31.0831
5.44	14.7893
5.66	11.4431
5.88	23.9185
6.1	2.7123
6.32	24.3968
6.54	22.949
6.76	35.5621
6.98	42.6611
7.2	18.6992
7.42	21.6906
7.64	22.8511
7.86	11.2784
8.08	5.35914
8.3	13.6641
8.52	24.7141
8.74	19.5552
8.96	3.12527
9.18	10.9268
9.4	21.3335
9.62	8.85814
9.84	19.3127
10.06	15.0844
10.28	19.7445
10.5	21.8772
10.72	34.0408
10.94	27.3814
11.16	29.3419
11.38	22.8202
11.6	7.59748
11.82	22.7393
12.04	50.2126
12.26	34.5587
12.48	17.2385
12.7	17.4879
12.92	17.7657
13.14	14.4577
13.36	19.6693
13.58	9.89925
13.8	10.3738
14.02	27.703
14.24	13.8004
14.46	14.1806
14.68	15.789
14.9	14.972
15.12	25.2823
15.34	15.8266
15.56	38.1342
15.78	33.4524
16	10.9726
16.22	18.237
16.44	14.1667
16.66	17.0824
16.88	35.7554
17.1	30.0464
17.32	25.8318
17.54	13.9452
17.76	29.9724
17.98	28.7812
18.2	29.5536
18.42	31.409
18.64	14.3045
18.86	2.30635
19.08	20.7933
19.3	14.3932
19.52	3.24277
19.74	20.5248
19.96	26.8591
20.18	18.4098
20.4	6.12444
20.62	26.502
20.84	23.6482
21.06	26.3768
21.28	28.135
21.5	30.3793
21.72	55.8491
21.94	28.5802
22.16	6.04834
22.38	29.6818
22.6	48.919
22.82	2.19551
23.04	31.65
23.26	28.4838
23.48	4.3533
23.7	36.7438
23.92	54.0012
24.14	28.4407
24.36	39.0877
24.58	19.517
24.8	90.8803
25.02	43.974
25.24	30.2145
25.46	19.6447
25.68	12.6056
25.9	20.6099
26.12	31.2696
26.34	26.2797
26.56	11.3455
26.78	0.593048
27	32.4564
27.22	20.5731
27.44	16.3381
27.66	7.56192
27.88	20.6837
28.1	3.38867
28.32	31.6341
28.54	28.0228
28.76	5.99136
28.98	26.818
29.2	4.53262
29.42	39.6862
29.64	7.06262
29.86	4.72763
30.08	0.334015
30.3	18.1295
30.52	34.0426
30.74	21.2325
30.96	10.9213
31.18	26.4991
31.4	7.27042
31.62	18.8093
31.84	32.588
32.06	402.903
32.28	71.2835
32.5	23.1437
32.72	19.1981
32.94	18.3694
33.16	34.8477
33.38	20.3715
33.6	29.3709
33.82	7.94362
34.04	23.1929
34.26	11.5749
34.48	2.3016
34.7	3.95406
34.92	0.093903
35.14	13.3178
35.36	28.5924
35.58	10.2161
35.8	20.8227
36.02	18.3701
36.24	9.67545
36.46	51.2957
36.68	20.0739
36.9	13.7391
37.12	32.748
37.34	0.398376
37.56	9.85558
37.78	4.93658
38	7.30649
38.22	25.9616
38.44	90.3337
38.66	17.8121
38.88	11.1341
39.1	7.84071
39.32	16.2529
39.54	37.3066
39.76	18.3768
39.98	27.1594
40.2	36.933
40.42	20.3455
40.64	3.55916
40.86	16.7639
41.08	52.8438
41.3	29.4293
41.52	15.2464
41.74	43.703
41.96	18.3072
42.18	3.64319
42.4	65.7573
42.62	40.5796
42.84	27.7474
43.06	7.09
43.28	20.6075
43.5	1.84235
43.72	46.4486
43.94	40.0584
44.16	27.6552
44.38	31.0948
44.6	29.9789
44.82	17.1944
45.04	14.1314
45.26	17.7894
45.48	4.77594
45.7	12.3543
45.92	6.67458
46.14	50.1529
46.36	54.0412
46.58	21.4624
46.8	24.0084
47.02	25.5204
47.24	27.0635
47.46	17.1713
47.68	25.1122
47.9	56.8408
48.12	8.30908
48.34	0.13118
48.56	13.618
48.78	34.4915
49	14.7372
49.22	19.6639
49.44	26.6797
49.66	13.0943
49.88	11.8933
50.1	44.5333
50.32	27.6308
50.54	25.2671
50.76	25.8159
50.98	51.9836
51.2	38.3735
51.42	21.33
51.64	29.7452
51.86	21.3076
52.08	13.7407
52.3	27.5449
52.52	65.7143
52.74	73.8131
52.96	111.727
53.18	29.1341
53.4	32.0156
53.62	7.33404
53.84	11.1149
54.06	42.4514
54.28	13.9054
54.5	33.7314
54.72	39.1185
54.94	16.7621
55.16	46.1003
55.38	42.5936
55.6	33.4002
55.82	14.7127
56.04	11.4307
56.26	20.2951
56.48	11.1297
56.7	4.32019
56.92	21.3162
57.14	17.5303
57.36	26.1142
57.58	35.7537
57.8	28.7927
58.02	46.7333
58.24	28.8088
58.46	42.0263
58.68	6.25647
58.9	3.14012
59.12	22.2948
59.34	33.1985
59.56	43.534
59.78	6.16078
60	34.932
60.22	32.8079
60.44	4.62111
60.66	6.00558
60.88	22.3992
61.1	14.5145
61.32	4.95445
61.54	32.2538
61.76	10.8993
61.98	15.9235
62.2	12.1941
62.42	28.9938
62.64	2.55643
62.86	8.70841
63.08	26.8042
63.3	0.890213
63.52	19.071
63.74	37.6433
63.96	51.6029
64.18	34.2709
64.4	16.1444
64.62	24.4804
64.84	21.7524
65.06	5.41632
65.28	25.7073
65.5	23.0633
65.72	1.73895
65.94	23.9837
66.16	8.15048
66.38	33.9493
66.6	15.4361
66.82	22.0885
67.04	43.3667
67.26	48.9611
67.48	24.145
67.7	37.2657
67.92	38.2548
68.14	17.4368
68.36	27.0951
68.58	22.9228
68.8	9.18961
69.02	36.7045
69.24	29.5189
69.46	26.6959
69.68	17.9861
69.9	18.0947
70.12	14.7952
70.34	24.3677
70.56	12.0108
70.78	16.5122
71	0.76091
71.22	36.8994
71.44	6.24597
71.66	4.52588
71.88	31.0054
72.1	23.093
72.32	2.2249
72.54	27.1712
72.76	37.8888
72.98	0.46228
73.2	22.6448
73.42	48.7279
73.64	0.146729
73.86	36.5532
74.08	22.5778
74.3	31.2626
74.52	33.3874
74.74	4.58594
74.96	41.7382
75.18	32.7916
75.4	28.205
75.62	25.3148
75.84	30.6192
76.06	2.03479
76.28	42.547
76.5	4.11728
76.72	13.1833
76.94	26.959
77.16	19.5558
77.38	13.9376
77.6	27.3808
77.82	29.941
78.04	12.8612
78.26	18.876
78.48	4.70496
78.7	47.1887
78.92	7.31091
79.14	1.10052
79.36	6.85356
79.58	34.4583
79.8	11.3634
80.02	21.6866
80.24	40.0746
80.46	0.450714
80.68	13.9436
80.9	17.657
81.12	41.6556
81.34	34.3616
81.56	31.7602
81.78	18.0034
82	9.45927
82.22	56.0063
82.44	42.7246
82.66	4.27727
82.88	30.369
83.1	11.4616
83.32	28.9276
83.54	0.741898
83.76	17.4025
83.98	3.80743
84.2	16.263
84.42	7.06009
84.64	22.58
84.86	37.6223
85.08	36.7901
85.3	36.5234
85.52	14.7366
85.74	2.12892
85.96	24.7446
86.18	20.721
86.4	31.2893
86.62	11.6788
86.84	20.6326
87.06	35.1942
87.28	24.6247
87.5	24.8375
87.72	17.4452
87.94	21.6645
88.16	2.16455
88.38	16.3117
88.6	26.357
88.82	16.6063
89.04	31.8636
89.26	36.5727
89.48	36.6844
89.7	52.7508
89.92	19.1856
