Measurement: Powder, Xray Data XY Processed
Mineral: Siegenite
Rruff sample: R050092
Ideal chemistry: Co^2+^Ni^3+^_2_S^2-^_4_
Locality: Bunker Hill mine, Jasper County, Missouri, USA (note that some people think this may be incorrect)
Source: Rock Currier
Description: Silver metallic octahedra coating chalcopyrite
Diffraction sample description: Powder, mixed with chalcopyrite [a:5.2903(5), c: 10.432(1)]
Cell parameters: a: 9.4204(3) b: 9.4204(3) c: 9.4204(3) alpha: 90. beta: 90. gamma: 90. volume: 836.01(7) crystal system: cubic
x	intensity
5	0
5.22	2.805
5.44	11.961
5.66	9.66
5.88	18.879
6.1	2.853
6.32	10.367
6.54	30.641
6.76	30.946
6.98	27.125
7.2	28.785
7.42	18.177
7.64	9.863
7.86	7.335
8.08	16.48
8.3	8.386
8.52	8.629
8.74	5.404
8.96	0.354
9.18	27.836
9.4	14.012
9.62	24.225
9.84	21.853
10.06	19.179
10.28	28.344
10.5	3.235
10.72	33.152
10.94	16.352
11.16	41.613
11.38	20.84
11.6	22.142
11.82	15.156
12.04	21.412
12.26	42.879
12.48	2.024
12.7	8.787
12.92	17.618
13.14	18.61
13.36	25.304
13.58	19.494
13.8	7.092
14.02	6.919
14.24	17.413
14.46	20.207
14.68	39.157
14.9	24.929
15.12	22.758
15.34	18.569
15.56	9.334
15.78	7.544
16	14.924
16.22	26.917
16.44	21.963
16.66	14.778
16.88	6.52
17.1	4.328
17.32	8.71
17.54	34.896
17.76	2.252
17.98	18.486
18.2	26.794
18.42	2.084
18.64	11.628
18.86	4.892
19.08	14.726
19.3	32.49
19.52	22.366
19.74	15.33
19.96	16.418
20.18	10.384
20.4	20.164
20.62	1.868
20.84	39.2
21.06	19.214
21.28	13.179
21.5	24.156
21.72	21.837
21.94	19.766
22.16	6.077
22.38	4.23
22.6	24.711
22.82	21.889
23.04	9.573
23.26	27.376
23.48	25.119
23.7	24.89
23.92	4.83
24.14	33.786
24.36	30.557
24.58	10.964
24.8	20.368
25.02	24.64
25.24	30.835
25.46	4.211
25.68	24.85
25.9	21.095
26.12	24.199
26.34	5.97
26.56	51.032
26.78	137.119
27	24.284
27.22	19.438
27.44	3.617
27.66	17.514
27.88	22.312
28.1	40.604
28.32	14.047
28.54	22.087
28.76	31.015
28.98	22.641
29.2	48.602
29.42	621.239
29.64	53.934
29.86	28.784
30.08	23.034
30.3	12.175
30.52	0.643
30.74	19.601
30.96	21.852
31.18	23.295
31.4	58.611
31.62	109.503
31.84	17.685
32.06	21.878
32.28	3.894
32.5	11.395
32.72	14.934
32.94	29.04
33.16	15.043
33.38	28.397
33.6	1.764
33.82	46.68
34.04	30.852
34.26	31.719
34.48	10.899
34.7	0.708
34.92	24.858
35.14	3.917
35.36	8.077
35.58	37.238
35.8	30.275
36.02	15.926
36.24	40.808
36.46	20.031
36.68	28.276
36.9	30.838
37.12	16.293
37.34	22.9
37.56	28.638
37.78	23.335
38	35.887
38.22	129.631
38.44	26.283
38.66	20.536
38.88	1.493
39.1	25.764
39.32	9.888
39.54	29.552
39.76	31.382
39.98	27.434
40.2	18.611
40.42	11.877
40.64	42.861
40.86	16.125
41.08	18.304
41.3	32.214
41.52	16.222
41.74	18.069
41.96	0.244
42.18	9.596
42.4	21.208
42.62	33.341
42.84	5.987
43.06	4.241
43.28	14.014
43.5	20.328
43.72	25.931
43.94	29.917
44.16	49.759
44.38	40.275
44.6	9.785
44.82	27.017
45.04	3.131
45.26	27.814
45.48	24.462
45.7	8.955
45.92	28.898
46.14	24.964
46.36	22.842
46.58	20.67
46.8	17.614
47.02	17.033
47.24	42.332
47.46	36.804
47.68	23.741
47.9	11.205
48.12	6.897
48.34	20.865
48.56	5.542
48.78	100.75
49	100.158
49.22	150.36
49.44	0.495
49.66	12.538
49.88	12.452
50.1	23.321
50.32	91.977
50.54	37.496
50.76	18.876
50.98	9.758
51.2	37.989
51.42	38.625
51.64	38.89
51.86	16.677
52.08	10.226
52.3	24.852
52.52	25.325
52.74	56.073
52.96	43.252
53.18	5.808
53.4	1.406
53.62	44.468
53.84	0.161
54.06	17.057
54.28	13.564
54.5	12.459
54.72	4.66
54.94	22.063
55.16	142.497
55.38	15.613
55.6	1.521
55.82	12.159
56.04	2.731
56.26	20.288
56.48	7.989
56.7	0.285
56.92	26.769
57.14	10.896
57.36	22.283
57.58	23.22
57.8	47.882
58.02	65.486
58.24	18.8
58.46	56.581
58.68	61.093
58.9	19.949
59.12	40.879
59.34	29.744
59.56	7.923
59.78	10.638
60	8.984
60.22	9.204
60.44	7.64
60.66	15.415
60.88	45.396
61.1	7.982
61.32	27.582
61.54	33.926
61.76	15.511
61.98	21.811
62.2	19.473
62.42	32.504
62.64	14.845
62.86	11.888
63.08	11.485
63.3	0.664
63.52	26.252
63.74	12.17
63.96	18.435
64.18	7.246
64.4	37.915
64.62	28.632
64.84	41.928
65.06	44.49
65.28	18.921
65.5	10.941
65.72	0.867
65.94	17.374
66.16	5.174
66.38	24.288
66.6	23.582
66.82	14.456
67.04	1.545
67.26	28.187
67.48	31.355
67.7	45.775
67.92	9.751
68.14	19.791
68.36	2.343
68.58	21.697
68.8	54.228
69.02	60.212
69.24	17.035
69.46	17.116
69.68	29.541
69.9	5.727
70.12	47.707
70.34	26.219
70.56	17.562
70.78	28.588
71	30.869
71.22	2.8
71.44	34.587
71.66	24.362
71.88	7.292
72.1	3.848
72.32	15.746
72.54	17.217
72.76	24.064
72.98	27.61
73.2	30.372
73.42	24.247
73.64	30.265
73.86	9.46
74.08	9.822
74.3	35.72
74.52	40.741
74.74	19.315
74.96	13.138
75.18	22.302
75.4	29.481
75.62	21.003
75.84	63.362
76.06	40.516
76.28	10.005
76.5	9.561
76.72	21.021
76.94	9.658
77.16	40.308
77.38	16.333
77.6	38.141
77.82	19.248
78.04	43.71
78.26	22.638
78.48	8.634
78.7	13.945
78.92	36.252
79.14	15.032
79.36	18.729
79.58	52.574
79.8	44.545
80.02	4.156
80.24	12.78
80.46	23.671
80.68	21.632
80.9	1.726
81.12	2.356
81.34	37.287
81.56	49.854
81.78	25.303
82	22.461
82.22	9.619
82.44	14.408
82.66	32.697
82.88	24.297
83.1	17.166
83.32	47.522
83.54	28.268
83.76	14.499
83.98	20.002
84.2	1.503
84.42	6.914
84.64	22.515
84.86	33.878
85.08	28.007
85.3	39.101
85.52	10.969
85.74	0.395
85.96	24.547
86.18	17.507
86.4	18.218
86.62	32.212
86.84	16.917
87.06	22.349
87.28	21.459
87.5	30.922
87.72	20.592
87.94	16.714
88.16	20.628
88.38	0.724
88.6	17.995
88.82	36.645
89.04	28.62
89.26	16.183
89.48	27.158
89.7	51.797
89.92	0.957
