Measurement: Powder, Xray Data XY Processed
Mineral: Sigloite
Rruff sample: R050576
Ideal chemistry: Fe^3+^Al_2_(PO_4_)_2_(OH)_3_7H_2_O
Locality: Viloco, Bolivia
Source: University of Arizona Mineral Museum
Description: Tan colored prismatic crystals
Diffraction sample description: Powder
Cell parameters: a: 5.1792(7) b: 10.3959(7) c: 7.0171(10) alpha: 105.064(6) beta: 111.334(8) gamma: 70.771(6) volume: 328.05(4) crystal system: triclinic
x	intensity
5	0
5.22	9.378
5.44	32.524
5.66	10.939
5.88	34.94
6.1	11.598
6.32	6.089
6.54	21.291
6.76	15.447
6.98	1.701
7.2	11.258
7.42	15.204
7.64	15.716
7.86	8.878
8.08	10.361
8.3	17.749
8.52	17.136
8.74	10.099
8.96	13.077
9.18	245.449
9.4	18.455
9.62	14.61
9.84	7.272
10.06	0.473
10.28	20.862
10.5	17.067
10.72	19.69
10.94	13.071
11.16	8.007
11.38	26.504
11.6	1.97
11.82	6.794
12.04	10.696
12.26	16.316
12.48	24.466
12.7	21.78
12.92	9.193
13.14	3.298
13.36	0.204
13.58	24.229
13.8	247.682
14.02	10.689
14.24	24.766
14.46	15.118
14.68	11.17
14.9	11.447
15.12	27.877
15.34	19.278
15.56	19.719
15.78	44.014
16	18.539
16.22	16.069
16.44	22.182
16.66	11.138
16.88	27.788
17.1	15.731
17.32	21.276
17.54	6.627
17.76	1.12
17.98	19.252
18.2	21.592
18.42	85.399
18.64	107.028
18.86	57.38
19.08	72.019
19.3	25.19
19.52	23.293
19.74	30.052
19.96	9.258
20.18	19.753
20.4	23.324
20.62	12.607
20.84	21.137
21.06	12.838
21.28	4.793
21.5	16.706
21.72	15.506
21.94	13.97
22.16	28.6
22.38	6.19
22.6	9.016
22.82	39.297
23.04	8.345
23.26	46.479
23.48	18.523
23.7	26.413
23.92	22.557
24.14	16.124
24.36	22.784
24.58	10.027
24.8	46.65
25.02	23.859
25.24	21.265
25.46	10.793
25.68	20.941
25.9	33.829
26.12	23.861
26.34	3.47
26.56	13.431
26.78	59.127
27	17.123
27.22	4.415
27.44	87.309
27.66	155.601
27.88	19.945
28.1	18.696
28.32	107.644
28.54	17.15
28.76	33.529
28.98	40.342
29.2	46.915
29.42	4.869
29.64	20.87
29.86	57.873
30.08	9.931
30.3	6.466
30.52	4.569
30.74	17.931
30.96	22.078
31.18	16.735
31.4	1.379
31.62	28.558
31.84	76.774
32.06	33.672
32.28	13.775
32.5	7.88
32.72	9.261
32.94	51.296
33.16	2.49
33.38	23.765
33.6	19.087
33.82	15.6
34.04	15.375
34.26	29.162
34.48	24.914
34.7	13.373
34.92	5.543
35.14	93.921
35.36	26.563
35.58	8.695
35.8	4.323
36.02	19.244
36.24	9.898
36.46	11.603
36.68	36.353
36.9	15.096
37.12	11.876
37.34	1.055
37.56	29.713
37.78	22.107
38	16.068
38.22	31.236
38.44	32.314
38.66	21.612
38.88	14.126
39.1	7.989
39.32	18.342
39.54	24.626
39.76	16.685
39.98	27.351
40.2	3.092
40.42	13.388
40.64	10.277
40.86	9.541
41.08	7.107
41.3	0.768
41.52	24.388
41.74	45.472
41.96	29.239
42.18	16.084
42.4	13.545
42.62	37.227
42.84	6.658
43.06	21.212
43.28	22.02
43.5	5.511
43.72	19.601
43.94	25.299
44.16	11.937
44.38	9.13
44.6	30.35
44.82	17.57
45.04	16.986
45.26	13.124
45.48	17.387
45.7	19.419
45.92	25.605
46.14	1.069
46.36	18.941
46.58	39.289
46.8	22.865
47.02	8.333
47.24	9.52
47.46	20.094
47.68	9.551
47.9	20.449
48.12	14.633
48.34	3.751
48.56	17.605
48.78	17.88
49	18.051
49.22	0.595
49.44	22.477
49.66	28.624
49.88	1.661
50.1	18.295
50.32	23.765
50.54	22.068
50.76	34.541
50.98	24.728
51.2	2.746
51.42	6.629
51.64	22.226
51.86	0.483
52.08	33.634
52.3	5.167
52.52	24.563
52.74	20.584
52.96	17.454
53.18	14.714
53.4	0.503
53.62	28.651
53.84	30.448
54.06	28.206
54.28	15.149
54.5	16.005
54.72	16.703
54.94	8.11
55.16	30.343
55.38	1.938
55.6	19.806
55.82	10.113
56.04	19.58
56.26	1.489
56.48	4.227
56.7	32.377
56.92	20.136
57.14	31.601
57.36	20.349
57.58	7.659
57.8	11.612
58.02	4.987
58.24	20.115
58.46	15.533
58.68	27.638
58.9	17.802
59.12	25.435
59.34	0.759
59.56	31.404
59.78	23.122
60	10.308
60.22	21.844
60.44	12.603
60.66	15.848
60.88	7.692
61.1	16.693
61.32	19.346
61.54	6.73
61.76	7.179
61.98	26.041
62.2	22.336
62.42	6.391
62.64	13.936
62.86	3.278
63.08	7.392
63.3	19.539
63.52	20.745
63.74	7.934
63.96	21.996
64.18	11.755
64.4	21.309
64.62	3.419
64.84	18.63
65.06	16.907
65.28	15.711
65.5	14.591
65.72	17.58
65.94	26.134
66.16	25.11
66.38	15.629
66.6	11.61
66.82	13.277
67.04	1.507
67.26	1.751
67.48	9.056
67.7	28.131
67.92	11.761
68.14	26.383
68.36	3.813
68.58	23.128
68.8	5.887
69.02	5.281
69.24	20.664
69.46	14.085
69.68	24.197
69.9	9.651
70.12	27.067
70.34	1.427
70.56	11.182
70.78	32.908
71	22.899
71.22	28.455
71.44	23.291
71.66	7.158
71.88	16.526
72.1	30.257
72.32	12.749
72.54	9.414
72.76	20.46
72.98	20.49
73.2	25.521
73.42	11.795
73.64	18.292
73.86	25.54
74.08	15.381
74.3	14.804
74.52	4.963
74.74	14.459
74.96	1.451
75.18	4.168
75.4	19.444
75.62	24.65
75.84	23.74
76.06	14.992
76.28	7.923
76.5	32.122
76.72	10.43
76.94	26.475
77.16	1.667
77.38	14.974
77.6	14.014
77.82	18.187
78.04	0.908
78.26	17.48
78.48	19.25
78.7	13.532
78.92	20.425
79.14	16.469
79.36	14.767
79.58	13.07
79.8	14.897
80.02	3.094
80.24	14.753
80.46	3.044
80.68	32.013
80.9	20.91
81.12	35.694
81.34	17.535
81.56	24.172
81.78	12.972
82	10.362
82.22	11.655
82.44	20.729
82.66	3.771
82.88	33.661
83.1	14.936
83.32	3.653
83.54	32.105
83.76	24.907
83.98	12.439
84.2	9.324
84.42	31.744
84.64	11.435
84.86	7.51
85.08	3.643
85.3	9.366
85.52	6.089
85.74	14.628
85.96	12.484
86.18	9.754
86.4	18.222
86.62	12.366
86.84	20.444
87.06	9.613
87.28	17.626
87.5	21.664
87.72	0.228
87.94	11.447
88.16	0.859
88.38	29.286
88.6	16.691
88.82	31.955
89.04	16.712
89.26	10.576
89.48	23.442
89.7	16.434
89.92	17.916
