Measurement: Powder, Xray Data XY Processed
Mineral: Silicon
Rruff sample: R050145
Ideal chemistry: Si
Locality: synthetic from Dupont
Source: Gerry Gibbs
Description: Dark gray synthetic fragment
Diffraction sample description: Powder
Measured chemistry: Si
Cell parameters: a: 5.4299(1) b: 5.4299(1) c: 5.4299(1) alpha: 90. beta: 90. gamma: 90. volume: 160.09(1) crystal system: cubic
x	intensity
5	0
5.22	2.93122
5.44	3.57495
5.66	9.1973
5.88	12.1041
6.1	21.4058
6.32	22.8784
6.54	8.76985
6.76	13.2395
6.98	10.1217
7.2	6.8663
7.42	4.62564
7.64	9.51975
7.86	8.00529
8.08	4.4231
8.3	6.81304
8.52	10.6973
8.74	4.34857
8.96	4.14902
9.18	5.93242
9.4	6.95573
9.62	5.08296
9.84	7.03389
10.06	2.93795
10.28	1.01803
10.5	9.97368
10.72	10.087
10.94	2.25902
11.16	6.29311
11.38	6.58982
11.6	9.67656
11.82	8.8634
12.04	9.15449
12.26	1.59783
12.48	1.39947
12.7	1.82544
12.92	12.1109
13.14	2.87249
13.36	8.15452
13.58	7.40671
13.8	4.3944
14.02	6.55921
14.24	4.576
14.46	4.30816
14.68	5.19006
14.9	3.51281
15.12	2.52869
15.34	2.66648
15.56	3.78292
15.78	6.84844
16	6.92567
16.22	1.98598
16.44	8.14937
16.66	3.33695
16.88	0.578117
17.1	7.59323
17.32	3.56135
17.54	7.40739
17.76	2.5643
17.98	1.56864
18.2	0.390244
18.42	6.44539
18.64	1.31893
18.86	1.2869
19.08	3.34737
19.3	5.34634
19.52	5.24341
19.74	4.08994
19.96	2.12706
20.18	1.07953
20.4	1.10606
20.62	4.19579
20.84	7.58687
21.06	1.86897
21.28	8.14729
21.5	2.06326
21.72	0.288076
21.94	3.33194
22.16	8.52882
22.38	5.5926
22.6	9.48688
22.82	0.559969
23.04	7.32561
23.26	4.95414
23.48	1.68663
23.7	6.66022
23.92	24.7938
24.14	15.7469
24.36	6.55999
24.58	6.45691
24.8	0.422923
25.02	0.42985
25.24	1.37884
25.46	7.66216
25.68	22.6145
25.9	2.94728
26.12	0.86366
26.34	0.343567
26.56	3.90518
26.78	1.46495
27	5.97797
27.22	4.37837
27.44	7.76991
27.66	12.9823
27.88	13.3854
28.1	10.9182
28.32	106.342
28.54	532.853
28.76	15.8777
28.98	14.3343
29.2	4.88913
29.42	1.37496
29.64	2.77409
29.86	7.24834
30.08	1.7904
30.3	4.36762
30.52	6.9314
30.74	2.0581
30.96	13.5409
31.18	3.10015
31.4	9.04377
31.62	1.17407
31.84	8.22151
32.06	4.56178
32.28	3.74379
32.5	6.90533
32.72	5.83257
32.94	5.75823
33.16	0.622151
33.38	4.51752
33.6	4.23257
33.82	8.1503
34.04	7.01642
34.26	6.97245
34.48	5.80109
34.7	1.93256
34.92	2.99308
35.14	6.3162
35.36	0.547382
35.58	5.77053
35.8	6.05441
36.02	2.4144
36.24	5.58518
36.46	7.67091
36.68	3.79625
36.9	2.82738
37.12	4.85135
37.34	3.91906
37.56	3.99637
37.78	5.88943
38	8.85156
38.22	4.03191
38.44	1.96062
38.66	1.86389
38.88	3.87186
39.1	6.87141
39.32	1.9223
39.54	0.919001
39.76	2.70277
39.98	2.86911
40.2	2.81769
40.42	0.732625
40.64	0.401493
40.86	4.47159
41.08	2.39724
41.3	0.254208
41.52	1.14688
41.74	7.00223
41.96	3.90612
42.18	15.8451
42.4	4.43974
42.62	6.48427
42.84	3.55664
43.06	11.4093
43.28	4.30086
43.5	2.32158
43.72	8.45702
43.94	2.4014
44.16	3.81049
44.38	4.7402
44.6	5.05673
44.82	9.0517
45.04	9.71174
45.26	7.36998
45.48	1.04946
45.7	3.5521
45.92	2.06119
46.14	1.45558
46.36	5.82001
46.58	7.11416
46.8	1.62384
47.02	16.122
47.24	215.846
47.46	292.9
47.68	12.8937
47.9	10.0367
48.12	4.36108
48.34	9.78331
48.56	1.5121
48.78	8.00972
49	1.53581
49.22	1.0548
49.44	11.0163
49.66	5.34719
49.88	14.8508
50.1	3.95245
50.32	18.1312
50.54	2.21722
50.76	0.737487
50.98	5.22853
51.2	2.11282
51.42	5.21483
51.64	2.30821
51.86	1.41139
52.08	6.71087
52.3	9.61708
52.52	6.77032
52.74	4.07908
52.96	6.12613
53.18	1.07516
53.4	3.96028
53.62	3.9787
53.84	4.05389
54.06	2.16145
54.28	6.85683
54.5	3.66584
54.72	0.296764
54.94	3.0587
55.16	2.63294
55.38	4.41305
55.6	6.23848
55.82	6.27955
56.04	43.3058
56.26	337.131
56.48	7.94736
56.7	5.03574
56.92	2.26414
57.14	0.402166
57.36	4.79945
57.58	5.13207
57.8	5.66722
58.02	5.05475
58.24	1.15225
58.46	4.3093
58.68	8.51952
58.9	8.70231
59.12	0.999536
59.34	2.02171
59.56	3.05333
59.78	1.10767
60	5.93141
60.22	9.77304
60.44	0.718268
60.66	1.40446
60.88	1.66817
61.1	4.63154
61.32	3.62066
61.54	5.47784
61.76	7.56573
61.98	6.49493
62.2	2.49042
62.42	3.72613
62.64	4.75972
62.86	2.71061
63.08	2.83464
63.3	5.76805
63.52	0.194924
63.74	2.83524
63.96	0.622687
64.18	5.72813
64.4	3.74307
64.62	4.77679
64.84	1.69855
65.06	2.03119
65.28	1.06585
65.5	5.99712
65.72	2.07848
65.94	0.154076
66.16	2.27165
66.38	2.30329
66.6	7.40614
66.82	0.333824
67.04	5.27574
67.26	3.98554
67.48	5.79228
67.7	2.7308
67.92	2.53664
68.14	1.47911
68.36	6.32392
68.58	8.37888
68.8	1.66475
69.02	7.60798
69.24	14.9128
69.46	5.90153
69.68	2.99653
69.9	0.04256
70.12	6.06349
70.34	5.09004
70.56	8.08192
70.78	1.22485
71	5.10027
71.22	4.8556
71.44	1.80449
71.66	0.748206
71.88	3.90014
72.1	0.035866
72.32	3.1952
72.54	3.26214
72.76	0.44156
72.98	0.563721
73.2	3.46202
73.42	3.49305
73.64	7.63014
73.86	0.450332
74.08	1.29549
74.3	4.04544
74.52	5.07854
74.74	3.92301
74.96	5.70711
75.18	4.34209
75.4	0.862553
75.62	5.93513
75.84	6.6777
76.06	8.36642
76.28	17.4065
76.5	13.2781
76.72	8.23663
76.94	3.38914
77.16	5.52754
77.38	5.88405
77.6	4.30368
77.82	13.5599
78.04	4.78198
78.26	1.00869
78.48	10.2199
78.7	6.5083
78.92	12.6953
79.14	0.671542
79.36	5.79089
79.58	8.66929
79.8	4.59182
80.02	2.38386
80.24	7.30653
80.46	3.40007
80.68	2.25635
80.9	4.27547
81.12	4.19011
81.34	4.20143
81.56	1.35917
81.78	4.20605
82	0.751702
82.22	1.20122
82.44	4.43211
82.66	3.57189
82.88	5.49413
83.1	2.60513
83.32	1.69979
83.54	13.5969
83.76	1.60374
83.98	3.64768
84.2	3.65745
84.42	5.67765
84.64	5.58786
84.86	2.36702
85.08	3.43108
85.3	5.44273
85.52	5.32696
85.74	4.3319
85.96	7.24528
86.18	4.06396
86.4	1.77123
86.62	8.66371
86.84	2.45281
87.06	5.29963
87.28	4.15527
87.5	6.84275
87.72	1.69487
87.94	26.7982
88.16	22.7129
88.38	30.8459
88.6	1.04046
88.82	1.28268
89.04	3.47099
89.26	0.069366
89.48	4.58425
89.7	6.74362
89.92	4.48602
