Measurement: Powder, Xray Data XY Processed
Mineral: Sillimanite
Rruff sample: R060787
Ideal chemistry: Al_2_OSiO_4_
Locality: Moragahakanda, Sri Lanka
Source: Michael Scott
Description: Mass of colorless parallel prismatic crystals
Diffraction sample description: Powder
Measured chemistry: Al_2.01_Si_0.99_O_5_
Cell parameters: a: 7.4838(3) b: 7.6726(2) c: 5.7716(2) alpha: 90 beta: 90 gamma: 90 volume: 331.41(1) crystal system: orthorhombic
x	intensity
5	0
5.22	0.99432
5.44	22.1815
5.66	9.83443
5.88	10.8615
6.1	3.23153
6.32	4.10379
6.54	2.09466
6.76	8.67261
6.98	8.94251
7.2	2.5765
7.42	9.16525
7.64	14.7176
7.86	6.12479
8.08	20.5795
8.3	7.45993
8.52	7.94731
8.74	9.3383
8.96	16.0695
9.18	17.4015
9.4	0.156632
9.62	8.56265
9.84	14.7324
10.06	3.99031
10.28	6.11442
10.5	2.19554
10.72	3.97704
10.94	3.64093
11.16	10.4708
11.38	10.0177
11.6	6.66168
11.82	7.26335
12.04	5.93537
12.26	2.72649
12.48	6.41978
12.7	1.86061
12.92	0.77508
13.14	1.6685
13.36	12.5076
13.58	7.35246
13.8	9.38015
14.02	8.29789
14.24	4.65321
14.46	12.4656
14.68	4.21307
14.9	4.98352
15.12	10.6951
15.34	3.52531
15.56	9.22397
15.78	1.81533
16	5.66574
16.22	6.54571
16.44	15.0239
16.66	5.57748
16.88	16.5544
17.1	15.7632
17.32	2.86466
17.54	8.0982
17.76	2.23863
17.98	10.5072
18.2	4.54422
18.42	6.42435
18.64	3.49404
18.86	6.80231
19.08	0.146646
19.3	11.1597
19.52	11.4953
19.74	2.68627
19.96	4.77609
20.18	3.26328
20.4	2.32796
20.62	14.0846
20.84	12.3024
21.06	7.01044
21.28	9.36571
21.5	12.3896
21.72	4.04279
21.94	9.75893
22.16	5.72741
22.38	7.61111
22.6	3.08156
22.82	3.94318
23.04	7.87572
23.26	32.2353
23.48	9.87086
23.7	12.8235
23.92	9.17339
24.14	4.07842
24.36	1.78078
24.58	1.53484
24.8	0.815877
25.02	4.52602
25.24	4.63712
25.46	12.8284
25.68	7.86497
25.9	13.9357
26.12	825.111
26.34	14.978
26.56	181.096
26.78	10.79
27	11.3611
27.22	9.24085
27.44	6.34653
27.66	9.65751
27.88	16.848
28.1	12.8158
28.32	5.04159
28.54	9.08566
28.76	3.30412
28.98	7.77139
29.2	9.16682
29.42	9.06737
29.64	0.450766
29.86	6.29099
30.08	11.9605
30.3	6.11327
30.52	10.0403
30.74	4.04018
30.96	52.1386
31.18	17.5647
31.4	3.04013
31.62	3.03022
31.84	2.51687
32.06	0.721134
32.28	8.94046
32.5	5.121
32.72	13.9873
32.94	10.224
33.16	4.86469
33.38	24.6469
33.6	20.5372
33.82	0.277885
34.04	12.3889
34.26	14.2114
34.48	11.2987
34.7	5.49163
34.92	9.61973
35.14	14.2389
35.36	57.6992
35.58	24.3992
35.8	12.4877
36.02	12.4926
36.24	13.8688
36.46	9.97477
36.68	2.25368
36.9	13.2913
37.12	202.563
37.34	13.7258
37.56	8.51313
37.78	6.44466
38	15.4848
38.22	5.5202
38.44	2.51104
38.66	7.49165
38.88	2.40807
39.1	13.6404
39.32	12.5657
39.54	15.45
39.76	2.94567
39.98	0.873274
40.2	0.182125
40.42	11.0298
40.64	7.97992
40.86	49.3266
41.08	40.3456
41.3	10.9506
41.52	5.02782
41.74	8.69645
41.96	5.74913
42.18	4.8072
42.4	2.11769
42.62	9.33355
42.84	57.4388
43.06	12.6581
43.28	1.43413
43.5	16.8235
43.72	3.99623
43.94	10.2572
44.16	10.6852
44.38	0.99025
44.6	19.2833
44.82	0.65523
45.04	7.60639
45.26	11.9623
45.48	0.860182
45.7	8.38505
45.92	6.56695
46.14	10.645
46.36	11.9242
46.58	14.4518
46.8	1.81963
47.02	4.11554
47.24	7.33985
47.46	13.9146
47.68	0.764169
47.9	9.33053
48.12	10.6855
48.34	4.44183
48.56	5.56883
48.78	10.6131
49	8.28672
49.22	2.21269
49.44	5.3376
49.66	12.6955
49.88	2.40182
50.1	6.49597
50.32	4.98807
50.54	4.90698
50.76	1.04386
50.98	7.0712
51.2	8.19571
51.42	1.25043
51.64	6.53399
51.86	11.2863
52.08	4.84971
52.3	1.66814
52.52	6.26506
52.74	1.65595
52.96	8.3669
53.18	7.57947
53.4	6.32248
53.62	43.1664
53.84	23.1854
54.06	12.957
54.28	14.2884
54.5	32.6287
54.72	14.8442
54.94	4.49271
55.16	0.917762
55.38	6.36758
55.6	4.4087
55.82	6.6198
56.04	6.16472
56.26	9.16246
56.48	5.07711
56.7	3.90198
56.92	6.89238
57.14	0.875285
57.36	12.7952
57.58	21.4815
57.8	35.3947
58.02	5.11176
58.24	1.17127
58.46	2.6919
58.68	8.42655
58.9	0.647205
59.12	20.2483
59.34	7.99656
59.56	3.69739
59.78	1.36817
60	6.26493
60.22	2.14935
60.44	6.12752
60.66	6.40329
60.88	15.1256
61.1	27.1505
61.32	5.56837
61.54	2.86416
61.76	3.43766
61.98	7.67129
62.2	2.96336
62.42	2.49272
62.64	6.94403
62.86	9.2061
63.08	1.77129
63.3	7.86235
63.52	10.8579
63.74	2.63998
63.96	13.6669
64.18	7.43695
64.4	7.33821
64.62	10.1876
64.84	5.814
65.06	2.49566
65.28	13.4576
65.5	4.59889
65.72	47.6998
65.94	22.8653
66.16	4.70388
66.38	3.01194
66.6	1.06046
66.82	5.18165
67.04	21.3174
67.26	9.43326
67.48	4.99126
67.7	7.97857
67.92	13.2064
68.14	6.25931
68.36	7.23625
68.58	9.84737
68.8	9.42114
69.02	3.66764
69.24	11.4779
69.46	6.29872
69.68	1.05514
69.9	7.42683
70.12	7.13995
70.34	5.83697
70.56	49.4738
70.78	80.7424
71	10.1222
71.22	6.25739
71.44	6.49316
71.66	9.34711
71.88	4.75461
72.1	8.25242
72.32	1.43073
72.54	4.31883
72.76	5.25997
72.98	11.8452
73.2	5.79727
73.42	8.68641
73.64	14.4596
73.86	15.2265
74.08	80.2953
74.3	50.8383
74.52	8.49394
74.74	8.20046
74.96	15.4345
75.18	2.50395
75.4	11.7598
75.62	7.97097
75.84	10.1572
76.06	1.5079
76.28	4.71341
76.5	5.72864
76.72	8.06273
76.94	4.20007
77.16	5.08415
77.38	2.13152
77.6	1.2098
77.82	0.881864
78.04	3.0921
78.26	7.16702
78.48	11.2443
78.7	10.3129
78.92	5.47727
79.14	3.55907
79.36	2.47841
79.58	3.41021
79.8	2.41339
80.02	0.424413
80.24	7.27153
80.46	11.3976
80.68	8.41145
80.9	13.3727
81.12	11.4091
81.34	4.22864
81.56	2.04206
81.78	12.2876
82	3.56153
82.22	10.653
82.44	21.8111
82.66	5.9322
82.88	7.84496
83.1	3.87681
83.32	2.97783
83.54	3.91156
83.76	4.87534
83.98	5.85537
84.2	5.65522
84.42	13.5681
84.64	2.60135
84.86	9.5352
85.08	9.58048
85.3	1.46985
85.52	0.544054
85.74	8.69567
85.96	4.93029
86.18	1.95535
86.4	6.96561
86.62	5.95437
86.84	2.88915
87.06	7.15543
87.28	12.9138
87.5	7.78883
87.72	1.76197
87.94	12.7476
88.16	9.52688
88.38	3.20065
88.6	16.271
88.82	2.63436
89.04	3.73874
89.26	3.5696
89.48	7.67422
89.7	9.37924
89.92	7.12135
