Measurement: Powder, Xray Data XY Processed
Mineral: Slavikite
Rruff sample: R080048
Ideal chemistry: (H_3_O)^1+^_3_Mg_6_Fe^3+^_15_(S^6+^O_4_)_21_(OH)_18_98H_2_O
Locality: Mandat, Bohmen, Czech Republic
Source: Michael Scott
Description: Mustard yellow, massive efflorescence
Diffraction sample description: Powder, using Mo radiation
x	intensity
5.47	0
5.55	225.568
5.63	690.543
5.71	1089.9
5.79	1105.84
5.87	769.993
5.95	337.406
6.03	74.8729
6.11	8.65732
6.19	5.12045
6.27	23.0526
6.35	14.4071
6.43	8.92059
6.51	64.3966
6.59	192.664
6.67	257.381
6.75	257.587
6.83	348.247
6.91	912.296
6.99	2095.52
7.07	3078.29
7.15	2860.32
7.23	1744.56
7.31	715.604
7.39	256.584
7.47	137.407
7.55	102.974
7.63	81.7178
7.71	87.2774
7.79	62.5069
7.87	39.3597
7.95	33.6674
8.03	30.2149
8.11	22.7761
8.19	34.4418
8.27	85.1541
8.35	92.1386
8.43	91.8984
8.51	63.6934
8.59	34.1974
8.67	39.3686
8.75	39.6524
8.83	28.3638
8.91	15.7018
8.99	3.10199
9.07	13.5919
9.15	6.48508
9.23	12.2783
9.31	9.58777
9.39	3.10687
9.47	31.8782
9.55	44.217
9.63	13.7754
9.71	5.56168
9.79	10.6462
9.87	11.0025
9.95	21.1778
10.03	64.2392
10.11	118.87
10.19	247.716
10.27	433.918
10.35	547.916
10.43	451.846
10.51	175.947
10.59	11.2153
10.67	6.48868
10.75	39.2009
10.83	98.5025
10.91	110.475
10.99	55.9828
11.07	2.36951
11.15	42.0712
11.23	331.435
11.31	918.424
11.39	1457.06
11.47	1550.84
11.55	1052.53
11.63	511.324
11.71	142.44
11.79	3.63214
11.87	4.62582
11.95	138.834
12.03	557.82
12.11	1248.84
12.19	1605.36
12.27	1357.84
12.35	942.164
12.43	1393.35
12.51	2297.31
12.59	2475.82
12.67	1629.04
12.75	559.589
12.83	101.95
12.91	26.2725
12.99	60.4194
13.07	216.184
13.15	696.529
13.23	1623.97
13.31	2663.44
13.39	2933.89
13.47	2447.31
13.55	2291.23
13.63	2481.4
13.71	2459.85
13.79	2037.87
13.87	1659.94
13.95	1240.8
14.03	817.618
14.11	722.81
14.19	777.325
14.27	693.348
14.35	707.308
14.43	1053.27
14.51	1371.77
14.59	1244.83
14.67	802.927
14.75	531.801
14.83	429.133
14.91	225.892
14.99	65.0852
15.07	13.0096
15.15	27.6978
15.23	30.7759
15.31	68.1843
15.39	187.432
15.47	210.481
15.55	136.217
15.63	30.0899
15.71	55.6308
15.79	192.079
15.87	376.926
15.95	593.909
16.03	721.887
16.11	610.639
16.19	328.954
16.27	99.227
16.35	6.54968
16.43	7.51767
16.51	47.0272
16.59	72.9193
16.67	62.6315
16.75	22.3774
16.83	0.365295
16.91	8.52429
16.99	13.1129
17.07	91.3041
17.15	224.914
17.23	388.022
17.31	518.707
17.39	473.169
17.47	310.548
17.55	226.016
17.63	271.261
17.71	401.788
17.79	542.124
17.87	593.607
17.95	491.659
18.03	271.739
18.11	105.826
18.19	44.6708
18.27	85.8435
18.35	229.267
18.43	500.309
18.51	706.526
18.59	643.298
18.67	395.044
18.75	119.323
18.83	0.212921
18.91	12.6801
18.99	86.4439
19.07	249.265
19.15	324.239
19.23	257.066
19.31	98.0721
19.39	14.0076
19.47	40.4466
19.55	19.7601
19.63	33.48
19.71	134.613
19.79	221.93
19.87	284.112
19.95	287.458
20.03	276.408
20.11	240.66
20.19	159.294
20.27	68.9161
20.35	34.1692
20.43	40.872
20.51	96.4639
20.59	137.142
20.67	155.597
20.75	198.833
20.83	246.982
20.91	323.651
20.99	366.497
21.07	404.927
21.15	367.003
21.23	338.885
21.31	367.862
21.39	457.947
21.47	538.592
21.55	595.206
21.63	716.511
21.71	824.035
21.79	867.704
21.87	756.277
21.95	598.774
22.03	400.267
22.11	186.793
22.19	33.1265
22.27	24.245
22.35	51.4941
22.43	189.756
22.51	314.29
22.59	349.691
22.67	327.842
22.75	290.537
22.83	319.809
22.91	356.748
22.99	423.104
23.07	490.743
23.15	509.187
23.23	488.756
23.31	335.924
23.39	205.001
23.47	76.0709
23.55	89.667
23.63	205.84
23.71	290.514
23.79	305.662
23.87	225.471
23.95	240.144
24.03	301.665
24.11	379.513
24.19	354.75
24.27	235.583
24.35	104.533
24.43	138.877
24.51	282.36
24.59	383.83
24.67	381.591
24.75	224.499
24.83	86.7659
24.91	17.7021
24.99	20.3711
25.07	16.8537
25.15	41.9381
25.23	17.3736
25.31	23.2997
25.39	48.941
25.47	11.0786
25.55	118.758
25.63	228.666
25.71	216.31
25.79	165.382
25.87	73.9467
25.95	11.3138
26.03	6.99091
26.11	138.154
26.19	397.901
26.27	684.325
26.35	818.488
26.43	852.812
26.51	812.152
26.59	648.55
26.67	499.269
26.75	385.987
26.83	356.44
26.91	397.406
26.99	382.107
27.07	324.657
27.15	211.915
27.23	76.4588
27.31	9.03192
27.39	11.1634
27.47	43.6258
27.55	101.423
27.63	209.208
27.71	270.181
27.79	278.675
27.87	207.778
27.95	128.022
28.03	54.4967
28.11	31.2039
28.19	108.717
28.27	241.711
28.35	322.421
28.43	316.433
28.51	221.844
28.59	108.867
28.67	44.3039
28.75	47.7251
28.83	89.7659
28.91	172.529
28.99	292.728
29.07	322.016
29.15	311.13
29.23	220.806
29.31	128.717
29.39	26.2416
29.47	13.7892
29.55	4.13202
29.63	92.8329
29.71	111.185
29.79	125.438
29.87	97.5872
29.95	120.481
30.03	163.482
30.11	192.568
30.19	200.776
30.27	182.547
30.35	243.096
30.43	254.351
30.51	226.421
30.59	189.215
30.67	126.909
30.75	66.3193
30.83	8.60507
30.91	25.3652
30.99	29.6059
31.07	6.09177
31.15	20.7644
31.23	62.999
31.31	120.116
31.39	159.124
31.47	167.282
31.55	186.465
31.63	210.298
31.71	227.843
31.79	209.478
31.87	214.484
31.95	178.41
32.03	169.76
32.11	142.021
32.19	95.1539
32.27	65.8518
32.35	67.9047
32.43	62.2427
32.51	100.837
32.59	98.8083
32.67	77.3956
32.75	80.261
32.83	60.9121
32.91	37.6007
32.99	36.0814
33.07	0.799011
33.15	49.9867
33.23	90.199
33.31	71.7586
33.39	54.9998
33.47	88.8257
33.55	140.657
33.63	212.56
33.71	258.971
33.79	212.473
33.87	189.448
33.95	160.155
34.03	115.274
34.11	85.0864
34.19	41.1921
34.27	60.0153
34.35	57.1172
34.43	64.1217
34.51	78.0468
34.59	96.6775
34.67	150.247
34.75	275.887
34.83	373.187
34.91	390.455
34.99	323.293
35.07	247.798
35.15	146.446
35.23	47.0512
35.31	12.772
35.39	1.58768
35.47	17.5912
35.55	61.2638
35.63	36.4173
