Measurement: Powder, Xray Data XY Processed
Mineral: Smithsonite
Rruff sample: R040035
Ideal chemistry: Zn^2+^CO_3_
Locality: Mazapil, Zacatecas, Mexico
Source: University of Arizona Mineral Museum
Description: Pale green-blue fine-grained massive
Diffraction sample description: Powder
Measured chemistry: (Zn_0.97_Ca_0.02_Pb_0.01_)_Î£=1_C_1.00_O_3_; CO_2_ estimated by difference
Cell parameters: a: 4.6594(2) b: 4.6594(2) c: 15.072(2) alpha: 90. beta: 90. gamma: 120. volume: 283.38(4) crystal system: hexagonal
x	intensity
5	0
5.22	11.014
5.44	0.337
5.66	10.218
5.88	2.935
6.1	1.012
6.32	2.338
6.54	4.676
6.76	29.996
6.98	28.862
7.2	33.731
7.42	10.645
7.64	32.776
7.86	8.246
8.08	10.817
8.3	4.573
8.52	7.758
8.74	2.189
8.96	7.794
9.18	0.926
9.4	14.29
9.62	0.69
9.84	3.813
10.06	10.886
10.28	5.841
10.5	8.649
10.72	9.633
10.94	5.518
11.16	2.123
11.38	8.239
11.6	9.324
11.82	15.89
12.04	5.074
12.26	4.119
12.48	4.153
12.7	9.482
12.92	0.802
13.14	9.703
13.36	3.344
13.58	0.56
13.8	10.493
14.02	14.816
14.24	7.953
14.46	12.041
14.68	10.277
14.9	4.104
15.12	12.005
15.34	8.313
15.56	6.359
15.78	18.074
16	15.319
16.22	6.386
16.44	10.192
16.66	8.081
16.88	6.005
17.1	9.889
17.32	7.442
17.54	11.121
17.76	5.796
17.98	6.734
18.2	8.64
18.42	4.418
18.64	8.309
18.86	7.507
19.08	1.731
19.3	1.68
19.52	5.762
19.74	5.782
19.96	5.487
20.18	13.489
20.4	0.649
20.62	6.544
20.84	9.726
21.06	6.627
21.28	4.555
21.5	5.517
21.72	4.249
21.94	12.14
22.16	10.338
22.38	7.354
22.6	19.758
22.82	10.11
23.04	4.708
23.26	1.183
23.48	9.845
23.7	4.261
23.92	6.746
24.14	3.099
24.36	9.886
24.58	11.194
24.8	17.698
25.02	309.887
25.24	128.941
25.46	16.357
25.68	11.553
25.9	8.041
26.12	5.326
26.34	1.744
26.56	9.582
26.78	10.839
27	6.054
27.22	8.451
27.44	8.521
27.66	7.131
27.88	3.755
28.1	0.539
28.32	8.147
28.54	9.145
28.76	6.731
28.98	8.912
29.2	11.008
29.42	60.359
29.64	7.791
29.86	6.773
30.08	12.182
30.3	6.18
30.52	11.054
30.74	5.765
30.96	7.825
31.18	3.172
31.4	7.044
31.62	26.76
31.84	19.478
32.06	21.527
32.28	82.887
32.5	2463.21
32.72	1082.5
32.94	54.375
33.16	4.678
33.38	7.581
33.6	10.662
33.82	6.967
34.04	5.344
34.26	2.859
34.48	14.975
34.7	4.552
34.92	3.556
35.14	0.426
35.36	1.674
35.58	0.036
35.8	8.437
36.02	16.172
36.24	11.75
36.46	9.554
36.68	2.35
36.9	16.138
37.12	15.774
37.34	14.23
37.56	3.306
37.78	1.756
38	11.248
38.22	13.045
38.44	16.101
38.66	521.949
38.88	50.598
39.1	15.833
39.32	8.487
39.54	4.274
39.76	3.65
39.98	11.44
40.2	10.948
40.42	4.235
40.64	9.294
40.86	12.235
41.08	14.349
41.3	15.645
41.52	6.43
41.74	2.974
41.96	14.35
42.18	13.089
42.4	11.902
42.62	31.913
42.84	527.281
43.06	33.513
43.28	17.599
43.5	3.589
43.72	4.534
43.94	4.86
44.16	0.371
44.38	8.442
44.6	7.618
44.82	3.367
45.04	4.232
45.26	5.405
45.48	4.169
45.7	5.923
45.92	1.344
46.14	24.179
46.36	16.709
46.58	201.381
46.8	180.344
47.02	21.102
47.24	7.101
47.46	0.084
47.68	10.636
47.9	9.939
48.12	13.116
48.34	10.665
48.56	13.905
48.78	5.012
49	3.711
49.22	9.03
49.44	10.138
49.66	7.928
49.88	17.943
50.1	0.621
50.32	1.065
50.54	5.621
50.76	9.858
50.98	5.108
51.2	20.696
51.42	341.003
51.64	57.013
51.86	9.266
52.08	1.767
52.3	4.126
52.52	8.222
52.74	6.358
52.96	14.113
53.18	9.762
53.4	26.648
53.62	388.994
53.84	1012.28
54.06	100.847
54.28	19.474
54.5	16.126
54.72	17.084
54.94	2.959
55.16	6.241
55.38	6.082
55.6	22.216
55.82	2.989
56.04	0.644
56.26	7.226
56.48	12.021
56.7	4.695
56.92	2.735
57.14	3.158
57.36	12.403
57.58	4.243
57.8	10.588
58.02	13.433
58.24	11.743
58.46	3.509
58.68	9.36
58.9	1.17
59.12	18.335
59.34	7.224
59.56	7.864
59.78	1.35
60	3.117
60.22	6.937
60.44	1.725
60.66	10.102
60.88	7.936
61.1	62.353
61.32	20.103
61.54	10.567
61.76	1.823
61.98	32.298
62.2	151.681
62.42	28.661
62.64	4.806
62.86	1.025
63.08	0.706
63.3	6.154
63.52	13.844
63.74	3.089
63.96	1.37
64.18	3.713
64.4	14.585
64.62	6.642
64.84	4.753
65.06	4.558
65.28	5.276
65.5	9.717
65.72	7.915
65.94	45.678
66.16	255.034
66.38	104.818
66.6	22.534
66.82	6.754
67.04	7.23
67.26	7.724
67.48	9.419
67.7	19.288
67.92	46.732
68.14	235.748
68.36	117.143
68.58	8.642
68.8	6.403
69.02	40.188
69.24	55.452
69.46	5.069
69.68	3.402
69.9	86.474
70.12	52.204
70.34	10.317
70.56	3.357
70.78	4.078
71	1.91
71.22	0.591
71.44	12.086
71.66	1.539
71.88	0.703
72.1	8.16
72.32	4.815
72.54	2.712
72.76	0.659
72.98	1.908
73.2	5.709
73.42	10.287
73.64	10.611
73.86	6.092
74.08	4.38
74.3	4.18
74.52	5.934
74.74	9.432
74.96	7.176
75.18	1.35
75.4	12.108
75.62	23.792
75.84	115.581
76.06	65.224
76.28	3.193
76.5	15.136
76.72	16.401
76.94	9.832
77.16	2.083
77.38	6.496
77.6	3.898
77.82	12.252
78.04	7.412
78.26	0.723
78.48	0.297
78.7	12.541
78.92	11.327
79.14	5.972
79.36	40.825
79.58	22.752
79.8	17.412
80.02	6.827
80.24	1.11
80.46	0.227
80.68	1.673
80.9	24.332
81.12	77.522
81.34	53.839
81.56	18.871
81.78	3.893
82	9.93
82.22	3.249
82.44	10.488
82.66	5.736
82.88	24.467
83.1	10.744
83.32	10.358
83.54	9.447
83.76	7.004
83.98	8.289
84.2	11.526
84.42	7.863
84.64	4.884
84.86	5.106
85.08	14.086
85.3	9.39
85.52	0.479
85.74	12.632
85.96	4.539
86.18	4.595
86.4	11.72
86.62	11.547
86.84	5.223
87.06	11.888
87.28	11.379
87.5	0.052
87.72	7.098
87.94	6.685
88.16	23.13
88.38	53.049
88.6	127.576
88.82	49.665
89.04	15.512
89.26	6.877
89.48	8.662
89.7	16.298
89.92	9.361
