Measurement: Powder, Xray Data XY Processed
Mineral: Sodalite
Rruff sample: R060405
Ideal chemistry: Na_4_Si_3_Al_3_O_12_Cl
Locality: Cerro Sapo, Cochabamba Department, Bolivia
Source: Marcus Origlieri
Description: Blue massive associated with brown burbankite R050646
Diffraction sample description: Powder
Measured chemistry: Na_8.00_Al_6.00_Si_6.00_O_24_Cl_2_
Cell parameters: a: 8.8793(1) b: 8.8793(1) c: 8.8793(1) alpha: 90 beta: 90 gamma: 90 volume: 700.06(2) crystal system: cubic
x	intensity
5	0
5.22	9.993
5.44	0.469
5.66	13.868
5.88	8.728
6.1	1.767
6.32	2.87
6.54	4.99
6.76	9.739
6.98	9.523
7.2	4.46
7.42	4.785
7.64	0.743
7.86	1.937
8.08	8.857
8.3	8.078
8.52	5.464
8.74	2.68
8.96	3.97
9.18	10.426
9.4	1.831
9.62	9.824
9.84	7.054
10.06	8.213
10.28	1.318
10.5	6.186
10.72	9.262
10.94	6.75
11.16	7.662
11.38	6.688
11.6	7.575
11.82	11.498
12.04	6.572
12.26	8.511
12.48	0.35
12.7	8.002
12.92	2.846
13.14	3.747
13.36	4.323
13.58	6.343
13.8	12.272
14.02	51.455
14.24	29.583
14.46	6.518
14.68	2.364
14.9	0.63
15.12	7.579
15.34	9.704
15.56	3.989
15.78	5.076
16	7.137
16.22	7.232
16.44	5.247
16.66	3.223
16.88	4.476
17.1	6.588
17.32	9.702
17.54	4.748
17.76	7.986
17.98	1.855
18.2	9.108
18.42	5.247
18.64	12.205
18.86	3.023
19.08	5.051
19.3	2.857
19.52	3.026
19.74	4.071
19.96	38.294
20.18	15.17
20.4	7.167
20.62	2.183
20.84	6.13
21.06	7.14
21.28	4.163
21.5	2.305
21.72	0.738
21.94	3.306
22.16	43.548
22.38	14.526
22.6	9.412
22.82	7.078
23.04	4.515
23.26	0.005
23.48	8.449
23.7	8.801
23.92	11.007
24.14	3.692
24.36	17.912
24.58	2285.97
24.8	55.166
25.02	17.811
25.24	3.796
25.46	1.855
25.68	3.039
25.9	3.323
26.12	1.969
26.34	15.653
26.56	14.236
26.78	0.836
27	9.553
27.22	5.981
27.44	12.431
27.66	6.592
27.88	5.821
28.1	4.923
28.32	9.83
28.54	2.315
28.76	1.247
28.98	4.939
29.2	3.501
29.42	9.976
29.64	3.666
29.86	6.251
30.08	1.233
30.3	1.083
30.52	8.825
30.74	20.725
30.96	11.696
31.18	9.06
31.4	1.1
31.62	7.011
31.84	82.102
32.06	7.778
32.28	0.035
32.5	5.319
32.72	5.522
32.94	12.628
33.16	0.7
33.38	0.247
33.6	4.458
33.82	0.708
34.04	7.175
34.26	4.921
34.48	6.405
34.7	0.194
34.92	30.124
35.14	69.262
35.36	3.638
35.58	7.907
35.8	3.728
36.02	4.968
36.24	8.043
36.46	8.127
36.68	0.034
36.9	9.05
37.12	6.069
37.34	8.937
37.56	11.102
37.78	9.113
38	207.11
38.22	17.229
38.44	7.167
38.66	5.306
38.88	8.497
39.1	2.586
39.32	5.993
39.54	10.077
39.76	8.984
39.98	0.18
40.2	1.167
40.42	2.298
40.64	28.238
40.86	1.139
41.08	12.035
41.3	11.819
41.52	4.546
41.74	7.053
41.96	3.814
42.18	7.588
42.4	5.366
42.62	6.158
42.84	7.741
43.06	16.865
43.28	193.845
43.5	23.011
43.72	6.044
43.94	5.047
44.16	6.484
44.38	0.314
44.6	7.839
44.82	4.013
45.04	7.278
45.26	5.482
45.48	7.329
45.7	69.416
45.92	4.579
46.14	0.869
46.36	3.965
46.58	6.823
46.8	4.875
47.02	7.988
47.24	2.117
47.46	6.208
47.68	1.079
47.9	11.353
48.12	28.469
48.34	5.351
48.56	2.455
48.78	5.194
49	12.365
49.22	1.448
49.44	4.519
49.66	2.558
49.88	1.466
50.1	8.441
50.32	68.414
50.54	11.28
50.76	11.647
50.98	8.448
51.2	3.626
51.42	5.619
51.64	2.623
51.86	2.876
52.08	5.838
52.3	2.884
52.52	51.054
52.74	14.263
52.96	3.347
53.18	3.985
53.4	13.195
53.62	7.308
53.84	4.439
54.06	2.628
54.28	6.591
54.5	9.619
54.72	4.563
54.94	6.378
55.16	6.469
55.38	3.501
55.6	2.36
55.82	6.227
56.04	7.147
56.26	3.169
56.48	5.117
56.7	7.192
56.92	26.076
57.14	7.221
57.36	0.927
57.58	1.474
57.8	7.378
58.02	4.274
58.24	7.28
58.46	5.308
58.68	20.179
58.9	41.364
59.12	8.052
59.34	6.512
59.56	0.608
59.78	0.24
60	1.091
60.22	4.027
60.44	3.486
60.66	11.404
60.88	25.77
61.1	12.569
61.32	3.37
61.54	4.213
61.76	6.762
61.98	12.458
62.2	0.41
62.42	5.262
62.64	4.138
62.86	38.956
63.08	4.408
63.3	7.055
63.52	4.067
63.74	4.091
63.96	2.169
64.18	0.565
64.4	0.151
64.62	35.887
64.84	38.955
65.06	5.936
65.28	4.999
65.5	4.546
65.72	1.574
65.94	1.947
66.16	2.047
66.38	15.329
66.6	14.23
66.82	5.476
67.04	0.345
67.26	4.699
67.48	10.684
67.7	4.292
67.92	5.618
68.14	10.582
68.36	17.243
68.58	13.837
68.8	5.831
69.02	8.334
69.24	0.093
69.46	6.861
69.68	5.036
69.9	10.42
70.12	2.475
70.34	29.588
70.56	13.728
70.78	8.795
71	1.085
71.22	5.889
71.44	2.429
71.66	4.471
71.88	11.476
72.1	35.463
72.32	23.191
72.54	6.224
72.76	6.173
72.98	7.13
73.2	1.099
73.42	2.421
73.64	8.794
73.86	6.482
74.08	15.566
74.3	4.682
74.52	2.704
74.74	1.213
74.96	4.687
75.18	7.838
75.4	4.042
75.62	6.696
75.84	9.476
76.06	4.337
76.28	2.286
76.5	4.32
76.72	4.399
76.94	4.252
77.16	8.181
77.38	0.297
77.6	10.179
77.82	4.947
78.04	1.454
78.26	0.255
78.48	11.082
78.7	0.978
78.92	3.911
79.14	15.729
79.36	24.807
79.58	16.063
79.8	2.92
80.02	0.033
80.24	5.008
80.46	5.108
80.68	1.303
80.9	3.715
81.12	8.753
81.34	5.831
81.56	0.852
81.78	6.877
82	1.571
82.22	4.653
82.44	2.594
82.66	9.789
82.88	7.016
83.1	10.019
83.32	3.786
83.54	0.882
83.76	2.944
83.98	6.355
84.2	3.371
84.42	4.358
84.64	11.652
84.86	9.572
85.08	4.095
85.3	0.015
85.52	6.895
85.74	8.735
85.96	5.624
86.18	33.641
86.4	11.332
86.62	3.294
86.84	8.255
87.06	2.974
87.28	3.985
87.5	4.028
87.72	4.089
87.94	9.397
88.16	6.714
88.38	6.826
88.6	6.307
88.82	8.97
89.04	17.923
89.26	8.848
89.48	8.846
89.7	8.553
89.92	7.169
