Measurement: Powder, Xray Data XY Processed
Mineral: Sodalite
Rruff sample: R060435
Ideal chemistry: Na_4_Si_3_Al_3_O_12_Cl
Locality: Koksha Valley, Badakshan Province, Afghanistan
Source: Herb Obodda
Description: Pale purple fragment
Diffraction sample description: Powder
Measured chemistry: (Na_0.99_K_0.01_)_8_Al_6.00_Si_6.00_O_24_Cl_2_
Cell parameters: a: 8.88044(5) b: 8.88044(5) c: 8.88044(5) alpha: 90. beta: 90. gamma: 90. volume: 700.33(1) crystal system: cubic
x	intensity
5	0
5.22	11.1632
5.44	2.67893
5.66	30.4772
5.88	8.72351
6.1	7.449
6.32	14.407
6.54	9.18738
6.76	12.1652
6.98	2.15435
7.2	10.9132
7.42	10.3764
7.64	7.10439
7.86	1.97675
8.08	1.23718
8.3	8.7609
8.52	6.22049
8.74	4.61602
8.96	5.05709
9.18	5.50023
9.4	5.75634
9.62	9.22506
9.84	8.62869
10.06	8.88201
10.28	1.88993
10.5	5.061
10.72	2.29321
10.94	7.70063
11.16	6.09252
11.38	4.30137
11.6	6.22886
11.82	6.42088
12.04	2.87525
12.26	2.83546
12.48	1.70214
12.7	2.62286
12.92	4.52883
13.14	0.382385
13.36	3.95246
13.58	0.46356
13.8	7.48496
14.02	28.4014
14.24	43.0299
14.46	3.61448
14.68	3.57868
14.9	9.77929
15.12	8.89677
15.34	1.98706
15.56	0.358211
15.78	0.701869
16	8.90487
16.22	4.83655
16.44	0.062396
16.66	5.28365
16.88	6.38924
17.1	2.71963
17.32	8.95681
17.54	9.00463
17.76	2.15993
17.98	10.9977
18.2	7.01199
18.42	0.959482
18.64	4.11636
18.86	3.98201
19.08	0.923774
19.3	3.84544
19.52	8.62854
19.74	4.34851
19.96	12.4615
20.18	3.70485
20.4	7.84212
20.62	5.98245
20.84	0.076341
21.06	3.0162
21.28	2.0978
21.5	5.12918
21.72	7.16775
21.94	2.26843
22.16	18.4502
22.38	9.44926
22.6	5.19997
22.82	3.83038
23.04	2.28087
23.26	0.126035
23.48	4.49075
23.7	2.06134
23.92	2.60739
24.14	5.34549
24.36	13.0555
24.58	1540.61
24.8	56.1313
25.02	9.87159
25.24	9.85769
25.46	0.972337
25.68	5.99908
25.9	9.07282
26.12	10.5542
26.34	7.92697
26.56	8.06672
26.78	1.06803
27	3.24216
27.22	0.52514
27.44	4.79887
27.66	6.00704
27.88	4.08737
28.1	8.45284
28.32	3.65096
28.54	12.6401
28.76	5.94617
28.98	4.89315
29.2	3.10661
29.42	4.0093
29.64	5.90352
29.86	0.317246
30.08	3.5664
30.3	10.4372
30.52	7.38074
30.74	8.38263
30.96	4.14464
31.18	2.76835
31.4	5.89748
31.62	10.8057
31.84	39.9225
32.06	18.014
32.28	6.23421
32.5	8.26098
32.72	0.893092
32.94	12.0802
33.16	2.05524
33.38	5.05253
33.6	0.89298
33.82	0.45004
34.04	0.722804
34.26	3.27721
34.48	8.06499
34.7	0.218036
34.92	16.2985
35.14	160.441
35.36	11.3251
35.58	2.72437
35.8	3.2664
36.02	7.78358
36.24	5.94625
36.46	5.35918
36.68	0.724778
36.9	6.03316
37.12	3.76109
37.34	1.40449
37.56	4.58711
37.78	10.4219
38	101.02
38.22	6.9709
38.44	6.09154
38.66	1.87705
38.88	8.53367
39.1	3.74437
39.32	0.842699
39.54	3.91418
39.76	0.996305
39.98	1.00833
40.2	6.30168
40.42	10.7145
40.64	18.7327
40.86	7.93916
41.08	3.01956
41.3	1.90354
41.52	3.78029
41.74	0.166794
41.96	7.65622
42.18	7.35404
42.4	2.0359
42.62	2.6683
42.84	6.22952
43.06	8.97688
43.28	237.677
43.5	22.5044
43.72	9.58647
43.94	4.62075
44.16	5.51515
44.38	7.92951
44.6	6.04167
44.82	5.24725
45.04	4.28574
45.26	6.34883
45.48	6.46473
45.7	73.9693
45.92	4.01871
46.14	10.038
46.36	0.213774
46.58	3.37592
46.8	7.36988
47.02	6.54779
47.24	4.64288
47.46	3.96575
47.68	7.36829
47.9	6.80592
48.12	16.7077
48.34	10.7149
48.56	2.80878
48.78	2.80989
49	4.76949
49.22	3.52457
49.44	10.412
49.66	4.28538
49.88	1.3389
50.1	2.74837
50.32	28.6361
50.54	17.5442
50.76	2.53453
50.98	0.348536
51.2	8.66477
51.42	0.696129
51.64	4.77333
51.86	3.15062
52.08	1.26781
52.3	7.23537
52.52	33.3042
52.74	12.4319
52.96	8.44772
53.18	2.53444
53.4	1.28836
53.62	7.75061
53.84	7.00079
54.06	2.15208
54.28	5.88402
54.5	0.802935
54.72	8.65376
54.94	5.54505
55.16	3.56583
55.38	1.49057
55.6	2.32371
55.82	5.97792
56.04	1.90897
56.26	8.54785
56.48	2.45478
56.7	3.61171
56.92	16.6555
57.14	5.0319
57.36	0.016104
57.58	1.90393
57.8	0.744001
58.02	1.79001
58.24	1.96666
58.46	6.101
58.68	11.1991
58.9	32.4383
59.12	9.23494
59.34	13.4254
59.56	0.188981
59.78	4.17749
60	2.38605
60.22	3.44241
60.44	1.52702
60.66	6.51646
60.88	13.7429
61.1	8.79863
61.32	7.59401
61.54	6.48728
61.76	1.33495
61.98	2.74347
62.2	7.37283
62.42	12.453
62.64	10.5047
62.86	23.4665
63.08	10.8523
63.3	3.5303
63.52	2.4237
63.74	8.40863
63.96	1.59736
64.18	2.54817
64.4	2.50564
64.62	9.3927
64.84	29.2905
65.06	6.35082
65.28	3.37791
65.5	4.95844
65.72	8.12786
65.94	4.19248
66.16	4.24554
66.38	6.23108
66.6	13.2734
66.82	6.36064
67.04	7.3766
67.26	5.12211
67.48	2.10687
67.7	0.974437
67.92	5.45549
68.14	1.29754
68.36	7.58413
68.58	7.64486
68.8	8.73965
69.02	5.6127
69.24	2.49028
69.46	10.4311
69.68	4.44976
69.9	3.71229
70.12	6.50577
70.34	41.2328
70.56	11.1715
70.78	8.06249
71	4.93697
71.22	2.84226
71.44	4.79829
71.66	1.78008
71.88	2.12276
72.1	34.7278
72.32	30.5914
72.54	0.875111
72.76	1.84051
72.98	0.870749
73.2	1.68558
73.42	5.95661
73.64	4.15842
73.86	9.39913
74.08	8.57821
74.3	12.8328
74.52	11.0208
74.74	8.04313
74.96	5.167
75.18	2.26555
75.4	0.384124
75.62	0.593597
75.84	5.50956
76.06	1.44171
76.28	6.37576
76.5	8.18464
76.72	1.16226
76.94	9.09712
77.16	5.96291
77.38	2.998
77.6	7.11669
77.82	4.01056
78.04	6.74225
78.26	1.59264
78.48	7.5139
78.7	4.39931
78.92	0.410419
79.14	7.2469
79.36	11.3125
79.58	14.3527
79.8	7.0645
80.02	2.12913
80.24	4.25468
80.46	7.54939
80.68	7.70294
80.9	0.97609
81.12	3.97352
81.34	5.96263
81.56	8.00772
81.78	2.72369
82	2.67851
82.22	1.53262
82.44	0.55051
82.66	6.66457
82.88	1.47208
83.1	3.36525
83.32	7.34299
83.54	5.28015
83.76	9.38365
83.98	1.62271
84.2	3.69398
84.42	6.76755
84.64	1.83653
84.86	11.7581
85.08	1.35527
85.3	0.488621
85.52	2.56385
85.74	6.36738
85.96	5.21362
86.18	29.3683
86.4	6.24225
86.62	5.25012
86.84	4.22572
87.06	0.259496
87.28	4.7836
87.5	0.035228
87.72	2.19654
87.94	12.1909
88.16	4.47643
88.38	1.4693
88.6	2.14114
88.82	4.93747
89.04	3.06027
89.26	0.268641
89.48	7.76719
89.7	19.5736
89.92	12.3324
