Measurement: Powder, Xray Data XY Processed
Mineral: Soddyite
Rruff sample: R060407
Ideal chemistry: (U^6+^O_2_)_2_SiO_4_2H_2_O
Locality: Palette, Northern Territory, Australia
Source: American Museum of Natural History
Description: Pale yellow consolidated earthy powder
Diffraction sample description: Powder
Measured chemistry: (U_1.00_O_2_)_2_Si_1.00_O_4_Â·2H_2_O
Cell parameters: a: 8.346(4) b: 11.219(2) c: 18.666(2) alpha: 90 beta: 90 gamma: 90 volume: 1747.8(0) crystal system: orthorhombic
x	intensity
5	0
5.22	18.5688
5.44	5.23971
5.66	12.2548
5.88	6.3121
6.1	9.03868
6.32	5.81628
6.54	0.607713
6.76	7.22849
6.98	6.7997
7.2	1.24401
7.42	13.7428
7.64	6.19668
7.86	9.44378
8.08	1.70729
8.3	6.02395
8.52	7.12172
8.74	1.14697
8.96	2.0382
9.18	0.015366
9.4	2.01815
9.62	4.09971
9.84	6.02996
10.06	0.767223
10.28	7.4049
10.5	12.2597
10.72	2.88268
10.94	4.18841
11.16	12.1645
11.38	15.1933
11.6	6.44365
11.82	0.47496
12.04	6.39409
12.26	1.52332
12.48	0.006923
12.7	0.778011
12.92	8.32779
13.14	2.4339
13.36	0.635215
13.58	0.531313
13.8	4.51338
14.02	16.5113
14.24	21.5508
14.46	5.48852
14.68	3.49294
14.9	6.27216
15.12	1.79212
15.34	0.243849
15.56	14.2333
15.78	0.282015
16	1.31784
16.22	2.48417
16.44	3.43015
16.66	1.38909
16.88	5.51516
17.1	3.49408
17.32	1.58204
17.54	2.29987
17.76	3.31138
17.98	5.37552
18.2	5.17496
18.42	10.0162
18.64	8.64983
18.86	9.6406
19.08	9.52611
19.3	1.28171
19.52	47.208
19.74	4.14047
19.96	10.0925
20.18	5.17798
20.4	4.00521
20.62	8.13713
20.84	6.25127
21.06	2.40455
21.28	4.38308
21.5	4.32135
21.72	1.23219
21.94	1.12156
22.16	4.02084
22.38	5.71576
22.6	11.5478
22.82	4.4773
23.04	2.37123
23.26	9.4208
23.48	14.1652
23.7	9.30405
23.92	3.35895
24.14	4.45767
24.36	2.57773
24.58	2.80171
24.8	3.10982
25.02	5.08344
25.24	3.99404
25.46	3.75544
25.68	5.42915
25.9	6.27463
26.12	3.09718
26.34	13.9677
26.56	48.7695
26.78	68.9284
27	12.0065
27.22	8.88165
27.44	11.8592
27.66	3.0236
27.88	3.22327
28.1	0.828998
28.32	5.08302
28.54	10.8665
28.76	0.212168
28.98	4.61436
29.2	8.2403
29.42	1.85434
29.64	3.92666
29.86	14.9731
30.08	12.7808
30.3	2.62853
30.52	2.80271
30.74	3.91147
30.96	4.15028
31.18	6.56779
31.4	2.87498
31.62	3.08359
31.84	7.09002
32.06	13.0694
32.28	6.19459
32.5	3.38487
32.72	5.6265
32.94	17.795
33.16	2.16335
33.38	8.46275
33.6	5.39232
33.82	2.31294
34.04	3.17391
34.26	4.16156
34.48	7.08022
34.7	1.10305
34.92	4.98906
35.14	1.78504
35.36	9.593
35.58	1.30455
35.8	5.16158
36.02	17.1969
36.24	15.4695
36.46	16.5766
36.68	6.80481
36.9	7.13364
37.12	1.55293
37.34	1.70428
37.56	5.86055
37.78	4.00914
38	1.08677
38.22	6.28511
38.44	6.21788
38.66	5.04305
38.88	5.99437
39.1	6.03692
39.32	3.85436
39.54	1.4574
39.76	4.37085
39.98	18.3931
40.2	6.3652
40.42	6.37326
40.64	5.19233
40.86	8.10334
41.08	5.07037
41.3	9.31747
41.52	3.24216
41.74	0.719536
41.96	7.17646
42.18	1.11794
42.4	3.93308
42.62	5.78325
42.84	2.24214
43.06	10.6473
43.28	18.5618
43.5	15.649
43.72	5.38583
43.94	0.667932
44.16	5.32928
44.38	14.3986
44.6	6.42973
44.82	9.48426
45.04	9.53707
45.26	5.55051
45.48	3.71318
45.7	8.87834
45.92	3.9856
46.14	1.8404
46.36	2.53226
46.58	0.825857
46.8	8.88704
47.02	0.577492
47.24	9.24379
47.46	15.9745
47.68	1.46956
47.9	12.9674
48.12	3.53449
48.34	3.34151
48.56	4.44393
48.78	12.6169
49	20.7803
49.22	6.09843
49.44	0.575006
49.66	3.06462
49.88	0.442109
50.1	4.00267
50.32	2.35645
50.54	4.61195
50.76	4.66211
50.98	0.793489
51.2	1.81092
51.42	9.20172
51.64	8.02145
51.86	1.84338
52.08	3.60986
52.3	4.43195
52.52	4.43341
52.74	4.23116
52.96	6.13139
53.18	2.08378
53.4	1.10992
53.62	5.73483
53.84	14.3238
54.06	4.16438
54.28	2.03062
54.5	11.9113
54.72	6.45967
54.94	4.42977
55.16	12.5237
55.38	6.83073
55.6	12.9883
55.82	13.9963
56.04	2.39343
56.26	3.70093
56.48	7.89333
56.7	1.04725
56.92	3.18205
57.14	4.32601
57.36	11.4328
57.58	11.6196
57.8	10.3535
58.02	12.2891
58.24	5.58782
58.46	2.63304
58.68	5.67632
58.9	2.78848
59.12	1.80891
59.34	5.85573
59.56	3.87655
59.78	2.87933
60	8.5945
60.22	4.57043
60.44	1.67353
60.66	8.34591
60.88	3.46177
61.1	5.44367
61.32	2.67336
61.54	6.84311
61.76	5.02156
61.98	9.14511
62.2	5.26911
62.42	5.53712
62.64	2.59537
62.86	7.6994
63.08	3.69225
63.3	2.7573
63.52	4.62089
63.74	1.71986
63.96	4.75046
64.18	4.84407
64.4	2.86715
64.62	4.96508
64.84	4.87444
65.06	1.10314
65.28	0.839261
65.5	0.200145
65.72	4.71508
65.94	2.05022
66.16	6.91308
66.38	12.9083
66.6	6.88431
66.82	0.144495
67.04	1.26851
67.26	2.62841
67.48	0.272355
67.7	1.29756
67.92	8.60749
68.14	2.47455
68.36	1.01839
68.58	1.91323
68.8	5.8256
69.02	3.62923
69.24	10.6605
69.46	7.61128
69.68	1.67624
69.9	7.54475
70.12	5.65763
70.34	9.70801
70.56	3.80512
70.78	11.9254
71	3.90122
71.22	0.882998
71.44	6.34133
71.66	1.24193
71.88	5.39541
72.1	3.48432
72.32	2.50386
72.54	5.32531
72.76	8.46873
72.98	3.3949
73.2	7.4815
73.42	2.4524
73.64	2.21161
73.86	2.03614
74.08	3.06568
74.3	7.16371
74.52	2.09565
74.74	3.16407
74.96	4.19498
75.18	3.24287
75.4	7.40294
75.62	4.44126
75.84	1.64878
76.06	1.71374
76.28	2.89079
76.5	1.72767
76.72	5.59059
76.94	1.50959
77.16	2.46165
77.38	0.360268
77.6	6.18822
77.82	5.01727
78.04	3.97181
78.26	4.14635
78.48	4.10689
78.7	1.01158
78.92	5.11094
79.14	2.35652
79.36	3.41415
79.58	1.48077
79.8	0.769644
80.02	5.17154
80.24	4.20368
80.46	3.24557
80.68	4.94533
80.9	0.933964
81.12	1.01098
81.34	0.932092
81.56	6.68878
81.78	2.70297
82	5.63127
82.22	6.25773
82.44	3.06782
82.66	7.97056
82.88	5.92913
83.1	1.87755
83.32	4.97119
83.54	3.0017
83.76	0.91794
83.98	2.28417
84.2	15.3721
84.42	2.37276
84.64	2.35805
84.86	0.671208
85.08	0.713885
85.3	8.37973
85.52	3.47908
85.74	6.35082
85.96	10.2134
86.18	4.14704
86.4	1.85587
86.62	5.83678
86.84	0.173941
87.06	5.9611
87.28	5.01579
87.5	6.04148
87.72	5.16921
87.94	8.24817
88.16	0.444238
88.38	0.691169
88.6	6.86428
88.82	3.10026
89.04	7.33737
89.26	3.57497
89.48	7.73242
89.7	7.89699
89.92	1.77799
