Measurement: Powder, Xray Data XY Processed
Mineral: Sorensenite
Rruff sample: R070576
Ideal chemistry: Na_4_Be_2_Sn^4+^(Si_3_O_9_)_2_2H_2_O
Locality: Kvanefjeld, Ilimaussaq, Narsaq, Kitaa, Greenland
Source: James Shigley
Description: Striated colorless laths
Diffraction sample description: Powder
Measured chemistry: (Na_3.98_[box]_0.02_)_Σ=4_Be_2.00_(Sn_0.91_Ti_0.07_Nb^5+^_0.02_)_Σ=1_(Si_3.00_O_9_)_2_·2H_2_O; Be and H_2_O not measured but assumed by stoichiometry
Cell parameters: a: 20.6546(7) b: 7.4198(3) c: 12.0108(4) alpha: 90 beta: 117.338(3) gamma: 90 volume: 1635.10(8) crystal system: monoclinic
x	intensity
5	0
5.22	6.67109
5.44	0.10774
5.66	3.04697
5.88	4.08202
6.1	2.12006
6.32	2.42378
6.54	9.68258
6.76	7.78453
6.98	12.08
7.2	11.6695
7.42	7.08304
7.64	6.30711
7.86	0.647016
8.08	1.12418
8.3	5.11815
8.52	5.26913
8.74	12.1989
8.96	10.2933
9.18	8.45485
9.4	5.53432
9.62	35.4731
9.84	6.47973
10.06	1.55489
10.28	2.76903
10.5	9.89611
10.72	12.1104
10.94	0.732906
11.16	4.70005
11.38	11.6844
11.6	6.80244
11.82	11.5207
12.04	8.61838
12.26	9.4416
12.48	1.28205
12.7	7.01905
12.92	2.78616
13.14	5.42071
13.36	2.10562
13.58	3.80639
13.8	2.49456
14.02	59.3349
14.24	19.3977
14.46	9.88992
14.68	2.93309
14.9	33.0272
15.12	15.173
15.34	9.31994
15.56	1.45903
15.78	5.59865
16	9.84469
16.22	8.94943
16.44	21.9912
16.66	199.92
16.88	2.38244
17.1	8.38759
17.32	6.73359
17.54	11.6364
17.76	80.751
17.98	6.9806
18.2	7.02214
18.42	9.25537
18.64	0.431815
18.86	3.79684
19.08	5.98261
19.3	7.03162
19.52	3.94665
19.74	2.77692
19.96	1.83061
20.18	0.79752
20.4	3.98907
20.62	8.93674
20.84	3.7966
21.06	5.69469
21.28	11.3373
21.5	7.44169
21.72	7.42179
21.94	2.41984
22.16	1.42417
22.38	7.51298
22.6	2.61275
22.82	160.918
23.04	11.8322
23.26	11.8667
23.48	3.06429
23.7	6.04825
23.92	1.96087
24.14	4.96027
24.36	2.8119
24.58	1.2518
24.8	17.5204
25.02	7.30183
25.24	1.55198
25.46	15.5409
25.68	6.87419
25.9	17.8256
26.12	301.959
26.34	28.145
26.56	8.30101
26.78	6.44837
27	1.54336
27.22	4.54858
27.44	0.31505
27.66	19.0252
27.88	1.88329
28.1	4.18951
28.32	22.6206
28.54	2.44274
28.76	9.00901
28.98	0.747418
29.2	129.622
29.42	30.9154
29.64	0.648581
29.86	2.62402
30.08	4.74172
30.3	241.466
30.52	22.2823
30.74	298.356
30.96	22.1256
31.18	1.3996
31.4	5.26034
31.62	189.696
31.84	10.0867
32.06	5.77145
32.28	0.77167
32.5	1.53667
32.72	2.70815
32.94	24.0222
33.16	9.24972
33.38	73.4434
33.6	158.298
33.82	9.33006
34.04	52.6812
34.26	11.039
34.48	8.08187
34.7	0.642144
34.92	6.97869
35.14	5.33064
35.36	8.64075
35.58	6.77578
35.8	15.2487
36.02	2.32241
36.24	5.16894
36.46	5.0373
36.68	19.1025
36.9	8.30772
37.12	8.17642
37.34	5.70191
37.56	10.6879
37.78	8.48182
38	1.61284
38.22	22.0556
38.44	12.8875
38.66	6.78611
38.88	6.77483
39.1	0.618771
39.32	43.6632
39.54	7.31279
39.76	48.2697
39.98	15.1088
40.2	7.90909
40.42	1.40405
40.64	2.87962
40.86	13.8944
41.08	5.44015
41.3	12.9675
41.52	16.5007
41.74	15.7945
41.96	9.86053
42.18	51.7723
42.4	6.76167
42.62	11.1037
42.84	61.0056
43.06	34.3173
43.28	3.54465
43.5	6.99776
43.72	0.061683
43.94	0.36093
44.16	5.6647
44.38	5.18486
44.6	5.12098
44.82	2.32164
45.04	18.3399
45.26	8.85285
45.48	2.87532
45.7	2.81444
45.92	3.76004
46.14	10.141
46.36	8.04502
46.58	19.6685
46.8	20.4358
47.02	1.71319
47.24	37.5693
47.46	30.3331
47.68	0.747083
47.9	1.1832
48.12	2.0889
48.34	4.27959
48.56	1.60404
48.78	4.58144
49	13.7975
49.22	19.4266
49.44	3.32347
49.66	2.46108
49.88	1.25119
50.1	26.0149
50.32	0.209386
50.54	3.00032
50.76	1.60755
50.98	47.6171
51.2	3.18828
51.42	30.8184
51.64	11.6898
51.86	8.75474
52.08	70.2475
52.3	22.0741
52.52	2.88502
52.74	2.85653
52.96	23.56
53.18	25.7356
53.4	71.8704
53.62	26.4232
53.84	22.564
54.06	4.64302
54.28	22.3236
54.5	5.47435
54.72	1.88989
54.94	10.0853
55.16	20.3477
55.38	2.48883
55.6	6.95604
55.82	1.26848
56.04	20.2248
56.26	11.81
56.48	28.1797
56.7	2.62192
56.92	3.04448
57.14	11.954
57.36	0.350329
57.58	6.81449
57.8	15.811
58.02	21.2423
58.24	10.7732
58.46	5.75267
58.68	14.2278
58.9	7.02004
59.12	1.8598
59.34	11.8732
59.56	5.82714
59.78	14.0857
60	8.86805
60.22	10.7918
60.44	1.95012
60.66	12.9622
60.88	16.8667
61.1	16.849
61.32	6.18515
61.54	14.1296
61.76	7.80176
61.98	20.8289
62.2	15.9828
62.42	2.21572
62.64	10.6127
62.86	23.4098
63.08	17.3763
63.3	4.5045
63.52	6.41034
63.74	7.40615
63.96	10.492
64.18	0.728718
64.4	12.3034
64.62	40.7235
64.84	23.5534
65.06	26.5861
65.28	1.21207
65.5	0.256955
65.72	7.05636
65.94	26.3893
66.16	14.9771
66.38	24.4757
66.6	11.3377
66.82	6.69225
67.04	2.57219
67.26	0.521411
67.48	6.24456
67.7	17.309
67.92	8.98823
68.14	4.65731
68.36	6.49287
68.58	9.66467
68.8	2.27447
69.02	12.107
69.24	5.07335
69.46	1.02977
69.68	20.8549
69.9	5.40358
70.12	7.64521
70.34	1.26667
70.56	13.7117
70.78	15.3935
71	0.431659
71.22	2.66581
71.44	6.0359
71.66	14.9988
71.88	17.4028
72.1	28.7591
72.32	11.4487
72.54	4.03219
72.76	17.1646
72.98	3.31585
73.2	3.44061
73.42	3.04697
73.64	1.34194
73.86	8.16602
74.08	10.3462
74.3	5.30285
74.52	1.55658
74.74	5.31961
74.96	5.31835
75.18	4.32277
75.4	3.22303
75.62	10.8772
75.84	5.45922
76.06	6.25581
76.28	0.236504
76.5	9.26907
76.72	26.361
76.94	8.59838
77.16	21.043
77.38	2.1494
77.6	5.26216
77.82	1.47093
78.04	3.93903
78.26	2.12863
78.48	9.20698
78.7	4.33994
78.92	5.11539
79.14	10.0463
79.36	8.53799
79.58	7.36857
79.8	12.4675
80.02	10.5274
80.24	17.3221
80.46	17.2876
80.68	1.74529
80.9	1.26787
81.12	0.247099
81.34	4.63654
81.56	4.95757
81.78	14.031
82	3.88349
82.22	3.93138
82.44	4.32382
82.66	8.25089
82.88	10.1441
83.1	5.21812
83.32	3.34882
83.54	6.01128
83.76	8.79542
83.98	5.31406
84.2	4.11204
84.42	13.8613
84.64	8.2884
84.86	0.79186
85.08	17.0925
85.3	8.09303
85.52	7.87327
85.74	9.03163
85.96	5.84847
86.18	2.24218
86.4	2.33033
86.62	4.39132
86.84	6.49183
87.06	6.59141
87.28	1.05716
87.5	5.85258
87.72	3.67215
87.94	8.87496
88.16	11.7575
88.38	0.868151
88.6	8.75702
88.82	8.99867
89.04	9.31699
89.26	1.0993
89.48	12.283
89.7	9.49783
89.92	1.33671
