Measurement: Powder, Xray Data XY Processed
Mineral: Spencerite
Rruff sample: R050581
Ideal chemistry: Zn^2+^_4_(P^5+^O_4_)_2_(OH)_2_3H_2_O
Locality: Salmo, British Columbia, Canada
Source: University of Arizona Mineral Museum
Description: White aggregate of parallel bladed crystals
Diffraction sample description: Powder
Cell parameters: a: 10.4371(3) b: 5.2742(3) c: 11.1830(6) alpha: 90. beta: 116.805(3) gamma: 90. volume: 549.45(3) crystal system: monoclinic
x	intensity
5	0
5.22	14.231
5.44	5.739
5.66	7.087
5.88	18.24
6.1	5.15
6.32	3.932
6.54	7.807
6.76	6.488
6.98	8.944
7.2	7.405
7.42	14.669
7.64	6.292
7.86	7.284
8.08	11.103
8.3	2.784
8.52	10.933
8.74	4.525
8.96	0.312
9.18	5.372
9.4	363.644
9.62	129.58
9.84	11.956
10.06	10.448
10.28	19.794
10.5	1.886
10.72	0.856
10.94	6.627
11.16	6.129
11.38	7.286
11.6	0.346
11.82	0.921
12.04	8.474
12.26	12.625
12.48	7.701
12.7	6.93
12.92	6.945
13.14	0.373
13.36	6.287
13.58	1.009
13.8	0.824
14.02	6.38
14.24	1.295
14.46	3.682
14.68	0.746
14.9	0.216
15.12	5.931
15.34	7.03
15.56	5.644
15.78	4.436
16	3.455
16.22	6.156
16.44	5.78
16.66	3.465
16.88	1.027
17.1	2.285
17.32	2.112
17.54	33.774
17.76	52.988
17.98	2.371
18.2	7.589
18.42	0.841
18.64	6.134
18.86	4.678
19.08	12.06
19.3	155.006
19.52	188.017
19.74	11.434
19.96	1.834
20.18	9.952
20.4	5.409
20.62	4.775
20.84	7.384
21.06	1.821
21.28	5.477
21.5	0.664
21.72	0.215
21.94	0.334
22.16	12.76
22.38	1.402
22.6	4.029
22.82	19.924
23.04	174.07
23.26	26.753
23.48	1.761
23.7	54.564
23.92	29.459
24.14	24.534
24.36	2.02
24.58	13.511
24.8	0.221
25.02	2.146
25.24	12.309
25.46	318.471
25.68	120.748
25.9	21.337
26.12	92.901
26.34	12.31
26.56	8.115
26.78	11.087
27	5.755
27.22	7.781
27.44	8.121
27.66	1.104
27.88	5.618
28.1	11.274
28.32	0.966
28.54	4.985
28.76	59.862
28.98	2.156
29.2	63.795
29.42	164.057
29.64	26.801
29.86	8.621
30.08	10.575
30.3	34.673
30.52	1.68
30.74	0.439
30.96	14.672
31.18	56.964
31.4	18.604
31.62	177.716
31.84	15.625
32.06	5.787
32.28	10.053
32.5	10.443
32.72	4.276
32.94	1.671
33.16	10.428
33.38	0.321
33.6	24.371
33.82	10.447
34.04	11.834
34.26	1.773
34.48	58.635
34.7	3.07
34.92	4.363
35.14	0.101
35.36	139.009
35.58	29.996
35.8	7.901
36.02	30.482
36.24	5.697
36.46	31.157
36.68	23.234
36.9	22.232
37.12	19.159
37.34	0.929
37.56	1.947
37.78	0.286
38	27.832
38.22	6.271
38.44	11.521
38.66	290.386
38.88	4.559
39.1	0.867
39.32	32.235
39.54	19.325
39.76	30.958
39.98	98.077
40.2	2.699
40.42	0.922
40.64	5.482
40.86	4.353
41.08	11.804
41.3	14.106
41.52	29.058
41.74	3.521
41.96	4.053
42.18	3.316
42.4	36.895
42.62	4.452
42.84	5.034
43.06	19.295
43.28	16.49
43.5	6.383
43.72	3.684
43.94	5.399
44.16	21.402
44.38	1.976
44.6	0.795
44.82	10.561
45.04	30.374
45.26	10.876
45.48	20.974
45.7	5.584
45.92	18.833
46.14	3.82
46.36	0.97
46.58	1.108
46.8	19.443
47.02	18.02
47.24	54.434
47.46	70.595
47.68	40.204
47.9	39.098
48.12	7.978
48.34	1.064
48.56	0.498
48.78	9.747
49	10.236
49.22	31.868
49.44	3.782
49.66	1.165
49.88	23.99
50.1	13.77
50.32	9.197
50.54	7.56
50.76	4.617
50.98	11.474
51.2	1.335
51.42	38.436
51.64	19.526
51.86	15.691
52.08	38.722
52.3	11.722
52.52	2.273
52.74	5.433
52.96	34.133
53.18	16.414
53.4	6.916
53.62	10.254
53.84	7.88
54.06	8.147
54.28	1.124
54.5	1.394
54.72	11.866
54.94	10.476
55.16	8.161
55.38	25.534
55.6	40.34
55.82	5.179
56.04	2.238
56.26	15.29
56.48	14.137
56.7	3.577
56.92	16.101
57.14	15.48
57.36	6.824
57.58	2.317
57.8	3.397
58.02	27.744
58.24	61.811
58.46	18.643
58.68	21.776
58.9	0.066
59.12	2.045
59.34	8.845
59.56	3.717
59.78	1.13
60	0.965
60.22	7.931
60.44	36.761
60.66	44.566
60.88	54.761
61.1	21.888
61.32	6.324
61.54	12.59
61.76	3.602
61.98	5.654
62.2	8.186
62.42	14.342
62.64	13.366
62.86	4.473
63.08	5.68
63.3	8.442
63.52	11.421
63.74	12.561
63.96	20.596
64.18	4.988
64.4	3.276
64.62	2.808
64.84	17.499
65.06	19.79
65.28	14.192
65.5	12.362
65.72	3.779
65.94	1.314
66.16	14.667
66.38	13.745
66.6	5.767
66.82	13.838
67.04	88.088
67.26	29.079
67.48	6.198
67.7	9.116
67.92	3.415
68.14	1.135
68.36	0.743
68.58	10.782
68.8	11.933
69.02	0.088
69.24	1.999
69.46	6.997
69.68	0.502
69.9	0.061
70.12	5.75
70.34	22.317
70.56	7.68
70.78	17.923
71	9.625
71.22	5.785
71.44	2.9
71.66	8.195
71.88	12.414
72.1	2.621
72.32	8.159
72.54	5.834
72.76	3.968
72.98	3.969
73.2	2.014
73.42	1.819
73.64	5.331
73.86	16.055
74.08	4.967
74.3	6.155
74.52	0.454
74.74	2.383
74.96	40.167
75.18	27.272
75.4	4.69
75.62	5.993
75.84	15.391
76.06	1.595
76.28	9.959
76.5	7.306
76.72	6.404
76.94	2.386
77.16	11.169
77.38	2.243
77.6	6.434
77.82	4.415
78.04	7.594
78.26	5.876
78.48	0.942
78.7	11.575
78.92	11.11
79.14	1.374
79.36	6.518
79.58	2.178
79.8	2.823
80.02	1.023
80.24	1.901
80.46	3.76
80.68	8.741
80.9	11.52
81.12	4.564
81.34	7.895
81.56	6.701
81.78	6.572
82	0.42
82.22	6.123
82.44	7.495
82.66	10.599
82.88	10.753
83.1	16.25
83.32	11.106
83.54	4.821
83.76	2.959
83.98	1.133
84.2	1.359
84.42	2.329
84.64	3.746
84.86	7.285
85.08	1.228
85.3	3.165
85.52	8.142
85.74	11.546
85.96	4.693
86.18	1.598
86.4	9.79
86.62	1.021
86.84	2.52
87.06	4.578
87.28	31.023
87.5	4.07
87.72	5.375
87.94	10.856
88.16	5.577
88.38	5.871
88.6	11.322
88.82	7.587
89.04	15.729
89.26	2.806
89.48	12.13
89.7	8.235
89.92	4.284
