Measurement: Powder, Xray Data XY Processed
Mineral: Spessartine
Rruff sample: R060447
Ideal chemistry: Mn^2+^_3_Al_2_(SiO_4_)_3_
Locality: unknown
Source: Gemological Institute of America
Description: Orange fragment
Diffraction sample description: Powder
Measured chemistry: (Mn^2+^_2.85_Fe^2+^_0.07_Mg_0.05_Ca_0.03_)_Î£=3_Al_2.00_(Si_1.00_O_4_)_3_
Cell parameters: a: 11.6205(2) b: 11.6205(2) c: 11.6205(2) alpha: 90. beta: 90. gamma: 90. volume: 1569.19(8) crystal system: cubic
x	intensity
5	0
5.22	4.779
5.44	3.08
5.66	11.253
5.88	17.18
6.1	13.439
6.32	3.326
6.54	16.609
6.76	17.006
6.98	11.518
7.2	7.236
7.42	15.217
7.64	22.16
7.86	11.652
8.08	17.628
8.3	3.826
8.52	23.348
8.74	13.302
8.96	4.743
9.18	5.461
9.4	3.973
9.62	27.874
9.84	20.318
10.06	8.046
10.28	9.621
10.5	11.015
10.72	0.849
10.94	6.359
11.16	8.067
11.38	8.63
11.6	10.793
11.82	30.575
12.04	5.819
12.26	9.385
12.48	8.158
12.7	13.733
12.92	13.469
13.14	4.622
13.36	16.58
13.58	8.536
13.8	2.148
14.02	0.904
14.24	13.592
14.46	4.91
14.68	11.575
14.9	9.246
15.12	3.544
15.34	12.938
15.56	7.075
15.78	13.259
16	15.08
16.22	19.169
16.44	17.933
16.66	13.665
16.88	21.355
17.1	3.599
17.32	18.825
17.54	0.651
17.76	25.344
17.98	19.52
18.2	17.137
18.42	8.351
18.64	11.341
18.86	14.471
19.08	8.393
19.3	0.651
19.52	12.339
19.74	3.555
19.96	4.37
20.18	20.466
20.4	8.067
20.62	1.98
20.84	11.938
21.06	10.795
21.28	6.19
21.5	14.492
21.72	8.086
21.94	19.226
22.16	11.559
22.38	8.842
22.6	8.942
22.82	13.995
23.04	10.151
23.26	12.155
23.48	5.069
23.7	12.08
23.92	5.783
24.14	6.861
24.36	9.499
24.58	12.742
24.8	1.348
25.02	18.563
25.24	8.915
25.46	10.788
25.68	16.819
25.9	18.402
26.12	14.959
26.34	0.322
26.56	6.632
26.78	7.557
27	10.767
27.22	9.75
27.44	14.874
27.66	4.296
27.88	12.074
28.1	5.838
28.32	3.39
28.54	8.23
28.76	9.019
28.98	7.957
29.2	13.891
29.42	10.745
29.64	3.629
29.86	2.24
30.08	4.165
30.3	7.128
30.52	0.442
30.74	29.219
30.96	16.432
31.18	15.682
31.4	3.263
31.62	6.274
31.84	2.438
32.06	6.097
32.28	3.228
32.5	8.289
32.72	3.2
32.94	11.74
33.16	13.912
33.38	5.023
33.6	15.429
33.82	7.51
34.04	18.623
34.26	10.628
34.48	70.839
34.7	75.937
34.92	20.584
35.14	21.678
35.36	16.24
35.58	23.042
35.8	8.556
36.02	0.049
36.24	29.81
36.46	13.696
36.68	5.901
36.9	11.202
37.12	15.064
37.34	7.922
37.56	6.983
37.78	22.957
38	64.757
38.22	10.607
38.44	6.553
38.66	5.959
38.88	0.255
39.1	3.541
39.32	5.423
39.54	20.279
39.76	15.901
39.98	4.627
40.2	3.047
40.42	1.29
40.64	8.489
40.86	22.064
41.08	8.991
41.3	18.906
41.52	8.399
41.74	5.295
41.96	1.187
42.18	9.108
42.4	17.11
42.62	47.642
42.84	16.717
43.06	18.877
43.28	1.283
43.5	4.054
43.72	14.308
43.94	7.579
44.16	3.784
44.38	6.9
44.6	3.11
44.82	17.192
45.04	11.316
45.26	10.167
45.48	15.857
45.7	17.336
45.92	16.802
46.14	20.16
46.36	13.69
46.58	13.813
46.8	4.513
47.02	11.465
47.24	7.532
47.46	16.329
47.68	28.414
47.9	8.353
48.12	14.001
48.34	50.532
48.56	23.163
48.78	12.577
49	10.24
49.22	9.368
49.44	6.699
49.66	16.594
49.88	6.726
50.1	17.749
50.32	14.701
50.54	11.553
50.76	21.118
50.98	4.329
51.2	21.363
51.42	10.105
51.64	0.087
51.86	13.246
52.08	5.872
52.3	29.895
52.52	10.83
52.74	33.183
52.96	16.056
53.18	11.674
53.4	5.395
53.62	8.089
53.84	10.82
54.06	12.334
54.28	7.785
54.5	13.421
54.72	53.532
54.94	27.239
55.16	4.959
55.38	10.958
55.6	14.271
55.82	13.35
56.04	27.381
56.26	14.316
56.48	26.257
56.7	13.065
56.92	14.878
57.14	56.866
57.36	63.856
57.58	2.115
57.8	19.208
58.02	0.024
58.24	21.814
58.46	12.696
58.68	9.642
58.9	6.637
59.12	4.274
59.34	12.609
59.56	143.292
59.78	35.263
60	15.923
60.22	13.066
60.44	1.117
60.66	6.038
60.88	15.271
61.1	15.519
61.32	0.667
61.54	16.122
61.76	2.005
61.98	1.022
62.2	12.231
62.42	18.664
62.64	20.699
62.86	18.927
63.08	7.921
63.3	9.927
63.52	5.031
63.74	10.316
63.96	3.886
64.18	18.84
64.4	13.673
64.62	10.639
64.84	1.144
65.06	6.764
65.28	10.47
65.5	14.736
65.72	1.255
65.94	1.568
66.16	17.177
66.38	11.751
66.6	8.104
66.82	10.136
67.04	7.544
67.26	3.522
67.48	6.361
67.7	17.731
67.92	25.119
68.14	16.176
68.36	1.134
68.58	8.372
68.8	13.868
69.02	18.577
69.24	18.028
69.46	7.716
69.68	3.717
69.9	3.072
70.12	15.143
70.34	10.781
70.56	14.835
70.78	13.694
71	10.974
71.22	5.973
71.44	3.523
71.66	16.975
71.88	13.684
72.1	10.34
72.32	19.888
72.54	13.622
72.76	23.055
72.98	28.743
73.2	4.825
73.42	15.161
73.64	5.901
73.86	6.943
74.08	4.664
74.3	6.546
74.52	15.24
74.74	8.421
74.96	20.102
75.18	24.464
75.4	26.664
75.62	11.149
75.84	1.418
76.06	16.466
76.28	9.793
76.5	11.116
76.72	2.546
76.94	34.959
77.16	29.867
77.38	1.63
77.6	0.668
77.82	9.913
78.04	16.075
78.26	5.557
78.48	12.821
78.7	14.515
78.92	3.43
79.14	5.521
79.36	6.581
79.58	10.87
79.8	18.403
80.02	11.021
80.24	4.137
80.46	5.691
80.68	2.998
80.9	14.419
81.12	9.627
81.34	4.534
81.56	24.591
81.78	11.4
82	11.992
82.22	15.192
82.44	0.359
82.66	6.24
82.88	4.65
83.1	12.877
83.32	14.497
83.54	12.327
83.76	11.457
83.98	7.094
84.2	4.518
84.42	20.16
84.64	5.036
84.86	19.883
85.08	15.678
85.3	13.273
85.52	8.503
85.74	9.312
85.96	21.815
86.18	8.95
86.4	5.008
86.62	0.973
86.84	9.169
87.06	7.695
87.28	9.965
87.5	1.509
87.72	7.043
87.94	20.539
88.16	12.628
88.38	20.255
88.6	10.425
88.82	23.904
89.04	24.007
89.26	14.595
89.48	5.428
89.7	9.773
89.92	3.595
