Measurement: Powder, Xray Data XY Processed
Mineral: Spessartine
Rruff sample: R080053
Ideal chemistry: Mn^2+^_3_Al_2_(SiO_4_)_3_
Locality: East Africa
Source: www.multicolour.com
Description: Transparent orange fragments
Diffraction sample description: Powder
Measured chemistry: (Mn^2+^_1.32_Mg_0.96_Fe^2+^_0.38_Fe^3+^_0.04_Ca_0.30_)Al_2.00_((Si_0.99_Al_0.01_)O_4_)_3_; Fe^2+^ and Fe^3+^ estimated by charge balance
Cell parameters: a: 11.5712(1) b: 11.5712(1) c: 11.5712(1) alpha: 90 beta: 90 gamma: 90 volume: 1549.31(5) crystal system: cubic
x	intensity
5	0
5.22	5.82832
5.44	18.576
5.66	19.6498
5.88	6.16941
6.1	13.9562
6.32	6.37661
6.54	7.33827
6.76	15.4524
6.98	42.6334
7.2	27.7908
7.42	11.2797
7.64	25.9507
7.86	5.47366
8.08	19.7472
8.3	1.91696
8.52	23.4492
8.74	3.96702
8.96	9.24359
9.18	1.31089
9.4	28.6358
9.62	26.3619
9.84	33.6349
10.06	23.502
10.28	15.549
10.5	43.9145
10.72	14.0718
10.94	16.5211
11.16	25.353
11.38	20.9639
11.6	25.7039
11.82	20.0934
12.04	18.3175
12.26	17.8007
12.48	0.763657
12.7	16.7742
12.92	19.7565
13.14	2.70651
13.36	5.43223
13.58	34.2409
13.8	25.4219
14.02	4.31216
14.24	19.1422
14.46	7.99421
14.68	28.797
14.9	23.2053
15.12	7.3072
15.34	31.2144
15.56	10.3676
15.78	2.98782
16	2.00589
16.22	18.0654
16.44	15.781
16.66	17.0804
16.88	30.9586
17.1	22.1373
17.32	26.0639
17.54	5.91891
17.76	10.0314
17.98	10.8304
18.2	12.7783
18.42	30.0666
18.64	0.896385
18.86	16.4741
19.08	9.46249
19.3	20.7676
19.52	6.29853
19.74	16.9261
19.96	23.757
20.18	3.82678
20.4	19.6692
20.62	25.867
20.84	11.262
21.06	3.02479
21.28	17.4693
21.5	4.62528
21.72	21.5915
21.94	17.7243
22.16	2.17971
22.38	18.1293
22.6	1.42973
22.82	20.3297
23.04	14.3076
23.26	25.743
23.48	4.79125
23.7	22.6462
23.92	17.7303
24.14	15.363
24.36	9.43358
24.58	9.69237
24.8	0.984978
25.02	11.5816
25.24	9.64922
25.46	11.8812
25.68	1.0263
25.9	34.7186
26.12	4.4856
26.34	12.1814
26.56	10.16
26.78	18.0698
27	12.9089
27.22	15.0232
27.44	17.5779
27.66	16.0574
27.88	4.30451
28.1	26.1166
28.32	5.40042
28.54	6.60953
28.76	14.4662
28.98	15.9333
29.2	2.8242
29.42	5.1239
29.64	8.76293
29.86	7.71915
30.08	15.7112
30.3	19.8686
30.52	6.30329
30.74	4.14429
30.96	192.78
31.18	28.1044
31.4	4.34414
31.62	20.5616
31.84	2.4335
32.06	6.99786
32.28	17.1003
32.5	27.6725
32.72	12.9771
32.94	15.2297
33.16	32.2646
33.38	4.98881
33.6	20.6189
33.82	16.2008
34.04	0.607582
34.26	10.0347
34.48	30.9035
34.7	294.682
34.92	0.06292
35.14	52.0445
35.36	12.155
35.58	10.1873
35.8	27.5993
36.02	2.63944
36.24	8.09187
36.46	31.6443
36.68	32.856
36.9	23.897
37.12	11.2782
37.34	9.86917
37.56	14.2087
37.78	31.4337
38	31.0951
38.22	14.6754
38.44	6.92394
38.66	4.1324
38.88	2.67589
39.1	0.751266
39.32	1.3363
39.54	15.7471
39.76	50.3499
39.98	19.1054
40.2	34.8498
40.42	9.17902
40.64	12.4737
40.86	8.47922
41.08	9.52996
41.3	28.5412
41.52	22.5009
41.74	19.027
41.96	21.7523
42.18	9.9507
42.4	7.81927
42.62	23.8433
42.84	28.7675
43.06	18.7432
43.28	29.1017
43.5	12.6514
43.72	17.3581
43.94	0.067856
44.16	31.401
44.38	16.9897
44.6	5.03515
44.82	16.9421
45.04	15.3554
45.26	2.95809
45.48	12.6776
45.7	11.8623
45.92	22.8978
46.14	21.4208
46.36	16.6921
46.58	4.16914
46.8	8.81283
47.02	19.6656
47.24	1.34319
47.46	19.2613
47.68	8.36102
47.9	11.5555
48.12	5.69829
48.34	32.1905
48.56	85.5934
48.78	9.70155
49	4.82294
49.22	13.3544
49.44	6.99213
49.66	5.91941
49.88	16.8465
50.1	2.10942
50.32	11.8208
50.54	18.04
50.76	25.1068
50.98	10.2201
51.2	12.3407
51.42	21.9041
51.64	16.6454
51.86	26.4359
52.08	8.4144
52.3	19.4851
52.52	15.7672
52.74	29.8453
52.96	10.4203
53.18	22.9261
53.4	37.2244
53.62	7.2403
53.84	12.757
54.06	11.7497
54.28	10.3564
54.5	6.93117
54.72	8.95271
54.94	113.039
55.16	16.2434
55.38	25.0713
55.6	0.170788
55.82	8.57571
56.04	15.4406
56.26	16.3734
56.48	14.286
56.7	18.0219
56.92	14.5323
57.14	6.00331
57.36	212.362
57.58	42.1863
57.8	17.9858
58.02	4.38579
58.24	3.3937
58.46	16.4743
58.68	10.7109
58.9	13.0392
59.12	21.6699
59.34	3.3108
59.56	26.7136
59.78	200.681
60	3.70296
60.22	0.299435
60.44	11.8043
60.66	3.65407
60.88	22.267
61.1	16.6614
61.32	15.4663
61.54	1.11285
61.76	29.2779
61.98	26.5445
62.2	13.9672
62.42	8.69296
62.64	13.3092
62.86	19.2009
63.08	11.744
63.3	7.4948
63.52	12.492
63.74	29.9972
63.96	1.59304
64.18	9.09996
64.4	26.6997
64.62	17.6259
64.84	9.49571
65.06	19.7898
65.28	9.0424
65.5	11.0639
65.72	27.1439
65.94	0.490398
66.16	15.5895
66.38	12.9547
66.6	13.6135
66.82	13.1374
67.04	9.37619
67.26	2.44083
67.48	17.8334
67.7	10.7536
67.92	21.2539
68.14	7.99022
68.36	7.74466
68.58	13.1226
68.8	15.3018
69.02	17.0361
69.24	3.74362
69.46	10.7774
69.68	23.1726
69.9	20.0296
70.12	17.5404
70.34	10.5987
70.56	7.81657
70.78	5.96044
71	10.7196
71.22	3.60107
71.44	16.5643
71.66	15.0568
71.88	13.017
72.1	5.8163
72.32	9.03464
72.54	19.031
72.76	13.8302
72.98	13.623
73.2	5.18427
73.42	4.64192
73.64	18.5489
73.86	12.3423
74.08	1.2206
74.3	2.59852
74.52	4.8793
74.74	14.2903
74.96	3.27789
75.18	103.481
75.4	42.8796
75.62	10.5307
75.84	10.6468
76.06	11.7503
76.28	18.923
76.5	17.0541
76.72	34.6291
76.94	14.2805
77.16	4.86144
77.38	31.847
77.6	18.5853
77.82	8.52759
78.04	7.34213
78.26	19.8627
78.48	14.0272
78.7	12.3972
78.92	1.47051
79.14	21.3666
79.36	12.3739
79.58	22.3318
79.8	4.79767
80.02	13.1031
80.24	14.1143
80.46	25.2496
80.68	19.2961
80.9	4.4916
81.12	10.2383
81.34	6.38874
81.56	0.842033
81.78	9.04635
82	15.5137
82.22	17.3612
82.44	37.2745
82.66	17.8954
82.88	1.9946
83.1	12.2216
83.32	12.0521
83.54	17.7902
83.76	8.98049
83.98	7.68042
84.2	9.01783
84.42	9.89202
84.64	20.9934
84.86	24.0662
85.08	16.3406
85.3	11.6764
85.52	23.613
85.74	7.88362
85.96	0.843315
86.18	16.203
86.4	4.63641
86.62	6.039
86.84	7.69663
87.06	17.8004
87.28	0.25061
87.5	16.8366
87.72	10.7238
87.94	11.1631
88.16	16.3463
88.38	2.24192
88.6	31.6901
88.82	9.71936
89.04	20.0164
89.26	26.6448
89.48	5.75252
89.7	18.4264
89.92	7.73567
