Measurement: Powder, Xray Data XY Processed
Mineral: Sphalerite
Rruff sample: R060636
Ideal chemistry: Zn^2+^S^2-^
Locality: unknown
Source: Gemological Institute of America
Description: Light yellow-green cleavage fragment
Diffraction sample description: Powder
Measured chemistry: Zn_1.00_S_1.00_
Cell parameters: a: 5.41035(7) b: 5.41035(7) c: 5.41035(7) alpha: 90 beta: 90 gamma: 90 volume: 158.371(6) crystal system: cubic
x	intensity
5	0
5.22	9.47185
5.44	0.726027
5.66	1.03982
5.88	11.6535
6.1	11.6811
6.32	21.6942
6.54	13.6144
6.76	12.5055
6.98	1.10744
7.2	3.44859
7.42	4.04809
7.64	3.42176
7.86	9.98324
8.08	7.62451
8.3	1.74244
8.52	6.77925
8.74	1.68802
8.96	3.63963
9.18	5.49712
9.4	6.99811
9.62	14.4058
9.84	4.10546
10.06	7.80891
10.28	0.345433
10.5	5.09812
10.72	3.93642
10.94	7.94603
11.16	1.95311
11.38	5.11
11.6	4.19836
11.82	4.42046
12.04	7.62452
12.26	14.9948
12.48	5.17202
12.7	7.19892
12.92	1.42701
13.14	3.63823
13.36	3.16719
13.58	5.08724
13.8	2.21282
14.02	1.36043
14.24	1.62171
14.46	12.7435
14.68	0.586186
14.9	5.68037
15.12	7.78924
15.34	7.7427
15.56	6.75387
15.78	8.64821
16	4.64794
16.22	7.55111
16.44	3.4915
16.66	1.26363
16.88	4.54123
17.1	3.48046
17.32	3.56683
17.54	7.44649
17.76	5.62972
17.98	6.59495
18.2	3.8048
18.42	7.73774
18.64	1.82847
18.86	5.88898
19.08	7.91002
19.3	7.78188
19.52	5.81058
19.74	7.60732
19.96	1.87774
20.18	7.81471
20.4	4.95725
20.62	6.75599
20.84	5.76197
21.06	2.66418
21.28	1.5979
21.5	1.55961
21.72	4.38453
21.94	3.37625
22.16	2.66211
22.38	0.393524
22.6	8.22773
22.82	5.54567
23.04	1.56776
23.26	6.59406
23.48	2.70212
23.7	3.74309
23.92	6.71639
24.14	3.95439
24.36	6.75736
24.58	3.54794
24.8	5.41022
25.02	6.04846
25.24	7.71701
25.46	2.79947
25.68	5.22053
25.9	5.75527
26.12	3.44562
26.34	9.00649
26.56	7.1195
26.78	1.49004
27	1.42324
27.22	3.35942
27.44	2.65114
27.66	8.70171
27.88	12.2951
28.1	4.0606
28.32	27.4882
28.54	473.717
28.76	200.947
28.98	35.1734
29.2	7.55441
29.42	5.20323
29.64	6.02531
29.86	0.840796
30.08	2.02519
30.3	2.79065
30.52	2.62988
30.74	1.36863
30.96	8.09471
31.18	9.48525
31.4	0.429207
31.62	3.87239
31.84	10.872
32.06	6.8063
32.28	5.44402
32.5	7.46862
32.72	10.5243
32.94	10.5745
33.16	67.5459
33.38	11.5204
33.6	0.352916
33.82	11.0622
34.04	6.14595
34.26	7.47215
34.48	5.9559
34.7	3.48029
34.92	0.672151
35.14	0.006391
35.36	4.12196
35.58	12.1018
35.8	4.36946
36.02	4.32578
36.24	7.26042
36.46	7.44108
36.68	11.3805
36.9	0.230461
37.12	2.02395
37.34	3.07276
37.56	3.1775
37.78	5.26645
38	9.39038
38.22	9.20565
38.44	2.3961
38.66	1.3489
38.88	6.62757
39.1	7.60671
39.32	4.62022
39.54	1.63616
39.76	8.70669
39.98	2.55205
40.2	8.44411
40.42	11.3906
40.64	0.377997
40.86	6.18882
41.08	3.33602
41.3	3.08324
41.52	0.028419
41.74	1.87689
41.96	1.8303
42.18	0.56737
42.4	8.37405
42.62	10.3286
42.84	14.4355
43.06	3.26255
43.28	1.18331
43.5	3.79978
43.72	6.96166
43.94	0.015778
44.16	0.072746
44.38	4.32349
44.6	2.30495
44.82	8.78391
45.04	6.34213
45.26	8.86725
45.48	3.3441
45.7	8.638
45.92	6.73591
46.14	3.63583
46.36	6.69116
46.58	8.65078
46.8	4.41029
47.02	14.4048
47.24	29.364
47.46	219.35
47.68	446.245
47.9	36.5808
48.12	16.234
48.34	3.93826
48.56	5.60904
48.78	7.6143
49	10.7309
49.22	5.78335
49.44	2.45665
49.66	7.04972
49.88	1.6801
50.1	5.63371
50.32	0.918772
50.54	11.8965
50.76	1.16934
50.98	7.36298
51.2	2.0276
51.42	5.00917
51.64	4.81975
51.86	13.4789
52.08	3.65838
52.3	4.92061
52.52	9.14961
52.74	6.19149
52.96	3.25587
53.18	10.0856
53.4	0.242389
53.62	5.23676
53.84	6.11947
54.06	4.56717
54.28	1.98006
54.5	3.62736
54.72	9.62948
54.94	3.92639
55.16	3.32466
55.38	3.61232
55.6	5.12451
55.82	17.5721
56.04	11.2243
56.26	74.9989
56.48	180.068
56.7	52.9545
56.92	10.3632
57.14	3.02294
57.36	1.89103
57.58	2.41308
57.8	4.98544
58.02	12.5739
58.24	0.997622
58.46	7.58994
58.68	4.30566
58.9	6.68939
59.12	36.0144
59.34	14.2888
59.56	8.26865
59.78	2.06842
60	5.26403
60.22	8.29702
60.44	4.36841
60.66	7.36081
60.88	1.20635
61.1	0.119033
61.32	0.132998
61.54	11.2033
61.76	9.09646
61.98	8.14949
62.2	5.33576
62.42	11.3165
62.64	4.4405
62.86	12.6472
63.08	5.75669
63.3	4.85562
63.52	2.89389
63.74	1.09988
63.96	7.78458
64.18	1.93102
64.4	7.86567
64.62	7.90172
64.84	9.03873
65.06	11.1162
65.28	5.03618
65.5	12.1063
65.72	5.13115
65.94	0.719861
66.16	5.35774
66.38	4.42595
66.6	1.39448
66.82	6.48416
67.04	2.36544
67.26	6.41521
67.48	3.14405
67.7	2.84209
67.92	7.5214
68.14	6.2368
68.36	1.24783
68.58	5.29317
68.8	2.94278
69.02	2.79487
69.24	9.67136
69.46	37.4255
69.68	29.9133
69.9	3.04111
70.12	5.22357
70.34	0.478614
70.56	3.81447
70.78	7.22591
71	2.57118
71.22	2.83263
71.44	3.90443
71.66	4.83002
71.88	4.79371
72.1	1.70177
72.32	1.7443
72.54	6.75964
72.76	3.82271
72.98	5.84938
73.2	12.489
73.42	9.67352
73.64	3.65167
73.86	0.358707
74.08	6.55433
74.3	1.32763
74.52	0.774423
74.74	5.7877
74.96	5.72946
75.18	3.45139
75.4	6.07689
75.62	4.80427
75.84	5.26897
76.06	11.8371
76.28	5.48867
76.5	10.1597
76.72	102.959
76.94	63.2518
77.16	16.1883
77.38	7.13108
77.6	5.37514
77.82	0.50565
78.04	8.6257
78.26	8.79086
78.48	2.07432
78.7	2.28635
78.92	0.512419
79.14	20.7899
79.36	13.7997
79.58	1.34878
79.8	1.2049
80.02	3.38855
80.24	8.54533
80.46	0.177443
80.68	2.1379
80.9	6.22324
81.12	5.48375
81.34	2.39291
81.56	4.5851
81.78	1.94379
82	2.72176
82.22	0.773762
82.44	9.60117
82.66	3.59476
82.88	1.54341
83.1	4.50627
83.32	0.618363
83.54	5.46166
83.76	2.43588
83.98	7.56145
84.2	5.2327
84.42	7.33426
84.64	1.27313
84.86	0.33882
85.08	11.3091
85.3	1.38596
85.52	3.24827
85.74	5.08756
85.96	3.99424
86.18	5.09636
86.4	9.59273
86.62	6.33935
86.84	2.77546
87.06	2.32671
87.28	0.102403
87.5	3.51696
87.72	9.00432
87.94	5.62933
88.16	7.31728
88.38	46.2333
88.6	46.9835
88.82	51.3534
89.04	8.38897
89.26	1.79015
89.48	7.50507
89.7	4.82086
89.92	6.72097
