Measurement: Powder, Xray Data XY Processed
Mineral: Spinel
Rruff sample: R050411
Ideal chemistry: MgAl_2_O_4_
Locality: Mogok, Burma
Source: Marcus Origlieri
Description: Pale pink gemstone
Diffraction sample description: Powder
Measured chemistry: Mg_0.93_Al_2.04_O_4_
Cell parameters: a: 8.0871(2) b: 8.0871(2) c: 8.0871(2) alpha: 90. beta: 90. gamma: 90. volume: 528.92(4) crystal system: cubic
x	intensity
5	0
5.22	10.4406
5.44	3.86306
5.66	9.97453
5.88	5.19916
6.1	6.39636
6.32	6.67486
6.54	11.7847
6.76	7.8937
6.98	9.46554
7.2	7.9611
7.42	0.358103
7.64	13.2774
7.86	7.91039
8.08	12.7619
8.3	4.07583
8.52	6.70716
8.74	1.09616
8.96	1.46945
9.18	1.22715
9.4	9.86303
9.62	3.07894
9.84	3.00633
10.06	13.0007
10.28	7.93936
10.5	3.15411
10.72	3.61779
10.94	0.191654
11.16	0.623069
11.38	7.55745
11.6	10.7381
11.82	11.9299
12.04	0.077319
12.26	12.1615
12.48	10.1002
12.7	5.02714
12.92	0.866183
13.14	12.4681
13.36	5.346
13.58	0.389353
13.8	3.75502
14.02	5.8475
14.24	5.9867
14.46	5.01472
14.68	6.40272
14.9	4.71958
15.12	2.10172
15.34	2.45417
15.56	7.46486
15.78	5.67574
16	4.78904
16.22	6.57238
16.44	7.52422
16.66	7.74982
16.88	9.89122
17.1	1.91601
17.32	8.72671
17.54	4.38449
17.76	2.94259
17.98	7.5435
18.2	4.21946
18.42	12.9093
18.64	13.7786
18.86	31.64
19.08	315.264
19.3	20.8986
19.52	5.72357
19.74	1.8471
19.96	5.02549
20.18	4.23922
20.4	10.1624
20.62	2.76794
20.84	6.2341
21.06	6.6208
21.28	5.82371
21.5	7.31631
21.72	7.52264
21.94	8.76916
22.16	6.67762
22.38	8.70676
22.6	0.442807
22.82	13.2296
23.04	4.81708
23.26	2.48342
23.48	3.35797
23.7	6.16225
23.92	2.76173
24.14	0.8123
24.36	5.54014
24.58	3.43034
24.8	7.29629
25.02	7.2775
25.24	8.00838
25.46	4.20039
25.68	16.2303
25.9	4.3065
26.12	4.65912
26.34	4.88488
26.56	3.70662
26.78	2.78139
27	5.90549
27.22	5.60421
27.44	6.58913
27.66	4.70873
27.88	9.53122
28.1	1.81546
28.32	5.6524
28.54	6.66327
28.76	2.70369
28.98	2.48483
29.2	2.31944
29.42	10.9821
29.64	7.23428
29.86	4.84828
30.08	4.40395
30.3	7.9904
30.52	7.39807
30.74	14.0578
30.96	9.76418
31.18	41.78
31.4	165.005
31.62	14.9856
31.84	17.2291
32.06	2.30162
32.28	4.65465
32.5	1.99391
32.72	11.364
32.94	1.11754
33.16	7.92907
33.38	3.27599
33.6	8.27255
33.82	9.39336
34.04	1.67856
34.26	7.00122
34.48	8.74344
34.7	4.45735
34.92	2.88209
35.14	22.2428
35.36	0.891937
35.58	17.4451
35.8	2.26058
36.02	4.12026
36.24	4.821
36.46	25.6158
36.68	80.0862
36.9	743.275
37.12	108.934
37.34	25.4681
37.56	0.250727
37.78	7.51386
38	11.8244
38.22	11.8189
38.44	4.67863
38.66	14.5304
38.88	13.5218
39.1	1.17175
39.32	6.39614
39.54	1.00064
39.76	3.32822
39.98	8.89274
40.2	4.06595
40.42	11.7464
40.64	1.46483
40.86	0.133004
41.08	2.1452
41.3	12.0674
41.52	15.3463
41.74	4.24676
41.96	8.996
42.18	3.44024
42.4	1.69309
42.62	8.2879
42.84	3.79761
43.06	3.62662
43.28	3.42281
43.5	13.5465
43.72	1.70267
43.94	1.659
44.16	5.72157
44.38	8.37331
44.6	54.2283
44.82	470.544
45.04	93.8149
45.26	21.5616
45.48	11.1604
45.7	2.3321
45.92	2.58028
46.14	1.40414
46.36	7.26669
46.58	9.38075
46.8	16.0025
47.02	10.6238
47.24	4.83173
47.46	10.2459
47.68	13.5971
47.9	6.01084
48.12	9.97957
48.34	5.90079
48.56	9.15424
48.78	9.16504
49	7.91623
49.22	7.98886
49.44	17.0522
49.66	10.1618
49.88	10.0884
50.1	14.17
50.32	10.0437
50.54	13.8438
50.76	0.862862
50.98	4.78543
51.2	0.227598
51.42	5.96436
51.64	6.92315
51.86	1.81128
52.08	8.70056
52.3	0.293237
52.52	6.17055
52.74	5.13315
52.96	2.19691
53.18	6.04891
53.4	6.64329
53.62	1.72454
53.84	5.65943
54.06	12.7135
54.28	5.70174
54.5	9.69458
54.72	5.42785
54.94	6.96412
55.16	10.8663
55.38	4.25012
55.6	38.1099
55.82	34.7682
56.04	10.9313
56.26	2.65483
56.48	2.42205
56.7	5.1565
56.92	0.257802
57.14	1.87797
57.36	9.67779
57.58	20.6497
57.8	6.53643
58.02	2.08572
58.24	11.2112
58.46	9.42784
58.68	1.96698
58.9	9.73652
59.12	21.5776
59.34	213.245
59.56	164.443
59.78	24.967
60	11.9955
60.22	0.4877
60.44	0.525257
60.66	3.25482
60.88	0.008623
61.1	4.82715
61.32	13.466
61.54	13.9925
61.76	0.635604
61.98	0.637535
62.2	0.378968
62.42	17.0961
62.64	3.86178
62.86	1.23963
63.08	1.74903
63.3	0.689845
63.52	3.6142
63.74	2.46788
63.96	4.61757
64.18	8.73902
64.4	6.78945
64.62	3.81976
64.84	10.8736
65.06	46.6044
65.28	298.823
65.5	91.0579
65.72	19.3677
65.94	9.94891
66.16	8.83955
66.38	8.83359
66.6	8.84102
66.82	6.48186
67.04	6.21113
67.26	2.77636
67.48	3.04103
67.7	0.909358
67.92	12.2456
68.14	3.25712
68.36	17.4781
68.58	23.4356
68.8	11.2597
69.02	11.8464
69.24	3.24516
69.46	7.34959
69.68	3.69902
69.9	6.90846
70.12	3.17591
70.34	4.29569
70.56	3.49823
70.78	12.2052
71	6.53627
71.22	6.63079
71.44	10.369
71.66	5.32291
71.88	1.37888
72.1	8.53094
72.32	6.61806
72.54	3.66525
72.76	1.65955
72.98	6.53575
73.2	6.45843
73.42	1.78583
73.64	4.45727
73.86	7.3115
74.08	10.5091
74.3	6.52423
74.52	6.41275
74.74	0.521227
74.96	7.45386
75.18	2.7702
75.4	3.78163
75.62	6.68972
75.84	8.53261
76.06	9.09273
76.28	8.88767
76.5	1.31802
76.72	0.841715
76.94	10.7339
77.16	19.6587
77.38	30.5172
77.6	30.2182
77.82	7.35635
78.04	11.5944
78.26	2.83165
78.48	0.345536
78.7	11.8199
78.92	5.25067
79.14	0.544077
79.36	2.23961
79.58	7.39933
79.8	5.67869
80.02	3.83739
80.24	7.74169
80.46	1.07953
80.68	3.25507
80.9	3.94464
81.12	4.82696
81.34	2.65981
81.56	0.608193
81.78	5.89565
82	5.71015
82.22	0.435777
82.44	18.4377
82.66	17.2935
82.88	16.0603
83.1	6.2502
83.32	3.5825
83.54	6.79191
83.76	2.9362
83.98	0.906176
84.2	3.25926
84.42	8.40366
84.64	3.47217
84.86	5.50435
85.08	3.5336
85.3	9.58189
85.52	12.2803
85.74	15.3744
85.96	7.15723
86.18	5.22679
86.4	1.75339
86.62	0.626222
86.84	7.39189
87.06	2.45895
87.28	3.65473
87.5	6.88186
87.72	3.7192
87.94	3.76474
88.16	5.66518
88.38	0.832038
88.6	2.23257
88.82	0.850033
89.04	2.84158
89.26	5.91781
89.48	3.85495
89.7	6.03288
89.92	7.49433
