Measurement: Powder, Xray Data XY Processed
Mineral: Spodumene
Rruff sample: R060039
Ideal chemistry: LiAlSi_2_O_6_
Locality: Black Hills, South Dakota, USA
Source: University of Arizona Mineral Museum
Description: Light green massive
Diffraction sample description: Powder
Measured chemistry: Li_1.00_(Al_0.99_Fe^3+^_0.01_)Si_2.00_O_6_
Cell parameters: a: 9.4739(4) b: 8.4006(3) c: 5.2249(4) alpha: 90 beta: 110.160(5) gamma: 90 volume: 390.35(3) crystal system: monoclinic
x	intensity
5	0
5.22	6.368
5.44	7.717
5.66	3.469
5.88	0.521
6.1	6.344
6.32	11.562
6.54	16.569
6.76	21.43
6.98	16.901
7.2	17.378
7.42	7.593
7.64	6.619
7.86	8.116
8.08	6.436
8.3	2.662
8.52	8.956
8.74	4.275
8.96	3.582
9.18	2.808
9.4	6.415
9.62	9.605
9.84	4.99
10.06	5.553
10.28	10.75
10.5	8.944
10.72	1.796
10.94	3.442
11.16	5.568
11.38	8.653
11.6	8.631
11.82	2.643
12.04	5.639
12.26	5.582
12.48	3.288
12.7	6.289
12.92	5.279
13.14	6.226
13.36	5.165
13.58	7.011
13.8	3.923
14.02	0.032
14.24	7.944
14.46	1.772
14.68	16.731
14.9	7.778
15.12	1.149
15.34	0.111
15.56	1.076
15.78	2.274
16	3.446
16.22	1.702
16.44	7.033
16.66	2.235
16.88	6.422
17.1	2.603
17.32	3.601
17.54	5.763
17.76	2.708
17.98	4.663
18.2	1.501
18.42	4.625
18.64	0.433
18.86	3.027
19.08	5.688
19.3	5.334
19.52	4.855
19.74	1.497
19.96	5.037
20.18	18.657
20.4	25.535
20.62	13.435
20.84	5.321
21.06	2.546
21.28	134.09
21.5	9.464
21.72	5.873
21.94	4.297
22.16	2.577
22.38	6.967
22.6	4.258
22.82	3.585
23.04	0.836
23.26	8.016
23.48	4.39
23.7	1.061
23.92	4.146
24.14	6.118
24.36	4.965
24.58	4.874
24.8	13.684
25.02	1.544
25.24	5.495
25.46	8.191
25.68	8.067
25.9	34.53
26.12	3.716
26.34	4.569
26.56	0.355
26.78	8.268
27	6.219
27.22	0.202
27.44	1.222
27.66	11.245
27.88	6.308
28.1	63.578
28.32	15.515
28.54	2.152
28.76	0.18
28.98	6.214
29.2	0.009
29.42	6.628
29.64	0.738
29.86	0.816
30.08	4.144
30.3	3.606
30.52	12.052
30.74	209.838
30.96	19.454
31.18	5.067
31.4	17.929
31.62	3.353
31.84	9.858
32.06	96.3
32.28	12.817
32.5	8.321
32.72	3.132
32.94	0.249
33.16	2.895
33.38	4.368
33.6	25.087
33.82	6.423
34.04	8.349
34.26	6.293
34.48	7.359
34.7	3.556
34.92	5.654
35.14	11.625
35.36	14.508
35.58	5.264
35.8	0.896
36.02	1.316
36.24	5.61
36.46	2.139
36.68	43.032
36.9	17.898
37.12	6.725
37.34	8.488
37.56	4.476
37.78	0.632
38	2.456
38.22	10.55
38.44	21.721
38.66	3.669
38.88	2.922
39.1	0.832
39.32	0.096
39.54	6.237
39.76	2.486
39.98	4.819
40.2	6.966
40.42	4.924
40.64	9.855
40.86	9.129
41.08	2.863
41.3	2.437
41.52	12.285
41.74	4.96
41.96	0.279
42.18	35.36
42.4	5.952
42.62	0.899
42.84	12.726
43.06	30.403
43.28	5.121
43.5	10.136
43.72	0.762
43.94	21.431
44.16	21.767
44.38	12.124
44.6	9.425
44.82	1.686
45.04	0.883
45.26	10.141
45.48	5.328
45.7	3.676
45.92	2.793
46.14	0.83
46.36	5.775
46.58	5.637
46.8	5.697
47.02	7.691
47.24	19.539
47.46	0.387
47.68	4.187
47.9	3.01
48.12	1.357
48.34	4.463
48.56	2.695
48.78	23.16
49	34.968
49.22	7.978
49.44	14.981
49.66	2.046
49.88	9.035
50.1	3.177
50.32	0.645
50.54	2.643
50.76	4.839
50.98	2.498
51.2	8.634
51.42	4.857
51.64	0.556
51.86	3.665
52.08	1.647
52.3	5.64
52.52	1.651
52.74	13.783
52.96	6.224
53.18	8.239
53.4	10.829
53.62	1.737
53.84	3.829
54.06	8.835
54.28	3.753
54.5	13.728
54.72	7.682
54.94	2.76
55.16	9.887
55.38	5.473
55.6	4.633
55.82	11.417
56.04	3.443
56.26	3.193
56.48	7.972
56.7	2.706
56.92	2.442
57.14	3.405
57.36	45.098
57.58	33.565
57.8	14.19
58.02	14.837
58.24	0.822
58.46	0.989
58.68	10.091
58.9	68.7
59.12	29.993
59.34	3.273
59.56	5.296
59.78	3.455
60	1.632
60.22	5.762
60.44	5.12
60.66	16.399
60.88	12.035
61.1	5.133
61.32	6.555
61.54	7.374
61.76	5.187
61.98	3.241
62.2	10.108
62.42	12.997
62.64	7.908
62.86	3.619
63.08	2.656
63.3	4.513
63.52	8.745
63.74	33.013
63.96	11.222
64.18	7.432
64.4	4.426
64.62	2.716
64.84	0.066
65.06	2.335
65.28	5.518
65.5	5.695
65.72	6.434
65.94	8.398
66.16	9.336
66.38	3.334
66.6	6.376
66.82	16.513
67.04	22.376
67.26	0.431
67.48	5.983
67.7	2.949
67.92	0.682
68.14	4.473
68.36	7.417
68.58	3.755
68.8	1.361
69.02	24.993
69.24	16.518
69.46	8.156
69.68	1.867
69.9	23.543
70.12	13.44
70.34	18.507
70.56	8.414
70.78	25.159
71	12.492
71.22	6.848
71.44	5.961
71.66	20.122
71.88	34.448
72.1	16.126
72.32	0.487
72.54	2.475
72.76	2.583
72.98	3.919
73.2	0.422
73.42	10.717
73.64	11.696
73.86	5.02
74.08	5.408
74.3	2.418
74.52	11.073
74.74	2.13
74.96	8.17
75.18	0.769
75.4	2.036
75.62	2.925
75.84	7.83
76.06	1.536
76.28	3.289
76.5	2.746
76.72	11.309
76.94	4.003
77.16	3.655
77.38	5.38
77.6	2.284
77.82	8.056
78.04	12.095
78.26	4.385
78.48	2.701
78.7	22.822
78.92	18.117
79.14	7.541
79.36	4.07
79.58	4.441
79.8	6.585
80.02	6.944
80.24	2.136
80.46	8.606
80.68	2.401
80.9	8.432
81.12	7.34
81.34	8.144
81.56	9.899
81.78	1.737
82	2.582
82.22	8.499
82.44	3.283
82.66	9.499
82.88	3.282
83.1	3.071
83.32	9.167
83.54	6.319
83.76	3.427
83.98	0.241
84.2	8.847
84.42	8.141
84.64	6.319
84.86	4.375
85.08	1.312
85.3	3.189
85.52	6.203
85.74	6.148
85.96	3.133
86.18	14.282
86.4	0.895
86.62	4.036
86.84	7.076
87.06	7.244
87.28	4.419
87.5	3.436
87.72	2.645
87.94	4.809
88.16	2.972
88.38	0.153
88.6	3.286
88.82	7.416
89.04	0.395
89.26	1.563
89.48	0.391
89.7	2.805
89.92	1.812
