Measurement: Powder, Xray Data XY Processed
Mineral: Spodumene
Rruff sample: R050252
Ideal chemistry: LiAlSi_2_O_6_
Locality: Minas Gerais, Brazil
Source: Marcus Origlieri
Description: Pale lavendar cleavage fragment
Diffraction sample description: Powder
Measured chemistry: Li_1.00_Al_1.00_Si_2.00_O_6_
Cell parameters: a: 9.4666(5) b: 8.3916(4) c: 5.2199(6) alpha: 90 beta: 110.170(6) gamma: 90 volume: 389.24(4) crystal system: monoclinic
x	intensity
5	0
5.22	17.4471
5.44	4.71209
5.66	8.67077
5.88	8.90325
6.1	7.38587
6.32	18.3537
6.54	7.55593
6.76	4.25564
6.98	20.6634
7.2	7.7293
7.42	5.83936
7.64	3.50166
7.86	0.288336
8.08	2.07266
8.3	6.58806
8.52	0.847873
8.74	10.3858
8.96	1.8978
9.18	9.49367
9.4	13.0168
9.62	4.21302
9.84	11.322
10.06	11.6808
10.28	4.79171
10.5	9.17908
10.72	11.3033
10.94	2.42978
11.16	4.54768
11.38	3.79863
11.6	5.69864
11.82	4.43406
12.04	8.20622
12.26	10.322
12.48	10.3427
12.7	4.15794
12.92	3.10177
13.14	5.91246
13.36	0.692895
13.58	6.47975
13.8	2.16465
14.02	5.74462
14.24	2.45529
14.46	56.3659
14.68	12.3538
14.9	3.3943
15.12	9.40381
15.34	1.41912
15.56	1.8513
15.78	0.21451
16	2.52485
16.22	11.7922
16.44	6.12037
16.66	3.5767
16.88	11.6409
17.1	3.11908
17.32	8.21987
17.54	0.159684
17.76	4.00341
17.98	7.49548
18.2	4.241
18.42	2.1554
18.64	7.46399
18.86	5.688
19.08	10.7306
19.3	0.093263
19.52	5.60581
19.74	6.7461
19.96	65.958
20.18	6.4893
20.4	128.192
20.62	2.15271
20.84	3.84259
21.06	56.1969
21.28	136.877
21.5	14.8229
21.72	0.404699
21.94	13.9383
22.16	1.51753
22.38	0.067042
22.6	1.63999
22.82	7.99676
23.04	4.80042
23.26	6.43274
23.48	14.5839
23.7	7.1029
23.92	1.99774
24.14	10.0985
24.36	2.07795
24.58	9.64685
24.8	0.373366
25.02	3.97781
25.24	11.71
25.46	4.28258
25.68	12.7838
25.9	120.842
26.12	23.6092
26.34	0.950539
26.56	9.78918
26.78	4.6963
27	3.32219
27.22	1.8735
27.44	7.10322
27.66	8.46207
27.88	27.6768
28.1	88.7379
28.32	15.9883
28.54	6.53082
28.76	10.258
28.98	2.11502
29.2	21.4271
29.42	10.645
29.64	5.55788
29.86	4.36199
30.08	0.005508
30.3	9.64606
30.52	98.9365
30.74	249.999
30.96	18.962
31.18	21.5395
31.4	24.5555
31.62	3.11788
31.84	21.8128
32.06	1161.01
32.28	25.8817
32.5	0.892694
32.72	7.98557
32.94	6.88997
33.16	2.42219
33.38	12.6465
33.6	302.834
33.82	12.5036
34.04	8.90416
34.26	3.24616
34.48	9.17622
34.7	1.34243
34.92	1.03576
35.14	24.2983
35.36	9.33442
35.58	6.87274
35.8	11.5961
36.02	0.448981
36.24	2.33863
36.46	18.4217
36.68	132.494
36.9	18.4538
37.12	10.3006
37.34	4.10468
37.56	7.14884
37.78	4.38556
38	12.7877
38.22	31.014
38.44	2.39065
38.66	5.61671
38.88	2.9371
39.1	5.5103
39.32	3.78821
39.54	7.02189
39.76	6.41797
39.98	6.81173
40.2	10.7914
40.42	11.6006
40.64	27.4498
40.86	2.71964
41.08	0.298534
41.3	11.3844
41.52	5.70482
41.74	0.129579
41.96	7.5224
42.18	18.6798
42.4	0.250239
42.62	9.41837
42.84	23.87
43.06	13.5456
43.28	2.02648
43.5	2.06173
43.72	2.12082
43.94	43.4495
44.16	18.5559
44.38	8.1848
44.6	16.2789
44.82	5.01157
45.04	0.536139
45.26	0.125699
45.48	5.85319
45.7	2.23268
45.92	0.458067
46.14	5.46068
46.36	6.23866
46.58	6.26909
46.8	9.22861
47.02	19.6236
47.24	37.2677
47.46	10.8759
47.68	9.45187
47.9	12.7795
48.12	7.32763
48.34	3.97384
48.56	14.7089
48.78	36.5399
49	73.5851
49.22	22.4262
49.44	28.8865
49.66	4.41616
49.88	15.08
50.1	3.50751
50.32	5.21213
50.54	3.77054
50.76	10.4671
50.98	6.16531
51.2	7.74297
51.42	4.99733
51.64	5.02687
51.86	10.4404
52.08	5.15297
52.3	1.93959
52.52	10.9145
52.74	29.7574
52.96	5.65369
53.18	5.43041
53.4	1.2833
53.62	1.07705
53.84	2.17122
54.06	6.41003
54.28	2.44425
54.5	5.50454
54.72	1.54782
54.94	0.291844
55.16	1.90789
55.38	5.94694
55.6	17.0628
55.82	16.7669
56.04	6.46715
56.26	0.110056
56.48	1.52542
56.7	1.13781
56.92	8.68519
57.14	9.74547
57.36	31.4496
57.58	42.6474
57.8	25.4539
58.02	28.0378
58.24	7.10118
58.46	0.543443
58.68	20.7581
58.9	290.203
59.12	36.185
59.34	1.7172
59.56	3.30072
59.78	6.69897
60	3.00013
60.22	7.55504
60.44	10.9326
60.66	56.184
60.88	44.8872
61.1	8.7371
61.32	2.57604
61.54	5.56691
61.76	5.31111
61.98	4.12418
62.2	2.9322
62.42	7.96369
62.64	3.55546
62.86	6.32397
63.08	0.41688
63.3	14.8155
63.52	7.31375
63.74	30.6948
63.96	10.3623
64.18	10.7012
64.4	2.98609
64.62	7.03288
64.84	3.38751
65.06	4.60601
65.28	5.57404
65.5	4.28531
65.72	5.67287
65.94	3.3674
66.16	9.95025
66.38	1.81388
66.6	9.80299
66.82	35.8927
67.04	25.0979
67.26	4.94714
67.48	6.98255
67.7	0.762893
67.92	5.28863
68.14	11.4341
68.36	6.77907
68.58	4.09947
68.8	9.7428
69.02	29.3991
69.24	6.91573
69.46	4.40402
69.68	0.010972
69.9	16.4549
70.12	17.0853
70.34	6.97006
70.56	14.7898
70.78	35.091
71	29.9268
71.22	3.22782
71.44	6.68598
71.66	19.3568
71.88	21.451
72.1	13.1103
72.32	5.66763
72.54	2.04583
72.76	5.24194
72.98	1.92625
73.2	3.26059
73.42	2.49964
73.64	3.56268
73.86	5.78526
74.08	1.09062
74.3	6.38696
74.52	3.32395
74.74	0.394995
74.96	1.3821
75.18	2.44736
75.4	7.58533
75.62	7.62445
75.84	11.6698
76.06	7.35994
76.28	0.93195
76.5	7.50994
76.72	7.02736
76.94	7.7921
77.16	6.37579
77.38	9.07508
77.6	2.50657
77.82	12.1064
78.04	11.9355
78.26	9.95153
78.48	19.3313
78.7	23.5717
78.92	16.5925
79.14	14.1658
79.36	9.50544
79.58	1.99708
79.8	6.54832
80.02	8.06637
80.24	9.3326
80.46	3.80351
80.68	11.9146
80.9	5.86012
81.12	6.77563
81.34	1.07171
81.56	2.86149
81.78	3.87552
82	4.75379
82.22	5.76415
82.44	16.6047
82.66	12.589
82.88	8.32552
83.1	4.28296
83.32	6.45274
83.54	4.53719
83.76	5.65667
83.98	0.203634
84.2	0.872361
84.42	9.10091
84.64	8.09387
84.86	1.1765
85.08	10.3639
85.3	3.5995
85.52	4.59485
85.74	6.747
85.96	9.89306
86.18	5.94054
86.4	10.2361
86.62	13.4267
86.84	3.41377
87.06	3.58816
87.28	2.72409
87.5	1.78184
87.72	5.81972
87.94	3.92405
88.16	1.00081
88.38	4.14542
88.6	6.26194
88.82	2.09865
89.04	5.21083
89.26	12.2328
89.48	5.37192
89.7	6.35656
89.92	8.79012
