Measurement: Powder, Xray Data XY Processed
Mineral: Spurrite
Rruff sample: R050236
Ideal chemistry: Ca_5_(SiO_4_)_2_(CO_3_)
Locality: South Sister Peak, Luna County, New Mexico, USA
Source: Marcus Origlieri
Description: Lavendar-gray massive
Diffraction sample description: Powder
Measured chemistry: Ca_5.00_(Si_1.00_O_4_)_2_(CO_3_)
Cell parameters: a: 10.4654(2) b: 6.7177(4) c: 14.1693(6) alpha: 90. beta: 101.250(3) gamma: 90. volume: 977.02(6) crystal system: monoclinic
x	intensity
5	0
5.22	8.12985
5.44	5.87289
5.66	14.3816
5.88	8.77563
6.1	16.8648
6.32	7.00527
6.54	8.21144
6.76	7.23587
6.98	14.7188
7.2	4.73803
7.42	11.8735
7.64	11.2605
7.86	10.3919
8.08	8.49635
8.3	3.69148
8.52	9.93087
8.74	1.63094
8.96	4.53542
9.18	4.61651
9.4	4.80422
9.62	0.387791
9.84	5.55207
10.06	3.61433
10.28	0.240378
10.5	0.871445
10.72	5.39886
10.94	2.69144
11.16	4.83577
11.38	4.99605
11.6	2.12458
11.82	2.87679
12.04	1.10836
12.26	6.2021
12.48	5.28838
12.7	24.2838
12.92	8.30878
13.14	3.64741
13.36	4.76543
13.58	0.874122
13.8	6.98386
14.02	3.10046
14.24	2.32133
14.46	3.40626
14.68	43.2746
14.9	5.46374
15.12	5.63306
15.34	2.56088
15.56	3.30461
15.78	9.09844
16	7.1082
16.22	7.11635
16.44	8.14568
16.66	13.08
16.88	2.30517
17.1	4.40793
17.32	36.512
17.54	2.71663
17.76	11.9685
17.98	7.08842
18.2	1.19309
18.42	3.33897
18.64	7.6095
18.86	3.7297
19.08	2.75564
19.3	7.8243
19.52	9.96148
19.74	3.86856
19.96	1.70768
20.18	3.6995
20.4	3.80253
20.62	3.81452
20.84	1.05654
21.06	2.05758
21.28	3.02397
21.5	5.11114
21.72	0.800561
21.94	3.75794
22.16	0.69119
22.38	1.59146
22.6	3.31552
22.82	3.45853
23.04	4.44539
23.26	43.3942
23.48	16.3617
23.7	21.5303
23.92	3.46873
24.14	1.72004
24.36	2.96039
24.58	1.99387
24.8	7.9951
25.02	6.96845
25.24	6.78325
25.46	5.69333
25.68	43.3839
25.9	2.36387
26.12	5.12034
26.34	2.12446
26.56	19.9312
26.78	5.72045
27	1.58916
27.22	2.47597
27.44	7.64371
27.66	6.50256
27.88	2.31255
28.1	79.0988
28.32	5.69838
28.54	2.52378
28.76	51.2396
28.98	16.074
29.2	9.84438
29.42	49.943
29.64	33.1427
29.86	12.0352
30.08	2.95043
30.3	2.03863
30.52	1.88437
30.74	4.15633
30.96	2.33058
31.18	7.31561
31.4	0.429836
31.62	4.68007
31.84	3.4344
32.06	1.95065
32.28	67.7662
32.5	5.75555
32.72	5.70305
32.94	73.6744
33.16	56.6962
33.38	7.96907
33.6	83.6571
33.82	9.68563
34.04	11.53
34.26	13.7876
34.48	2.94537
34.7	1.26008
34.92	5.45994
35.14	2.69298
35.36	1.06521
35.58	6.18023
35.8	0.900191
36.02	6.42494
36.24	2.38933
36.46	7.51914
36.68	15.8779
36.9	3.95302
37.12	3.07875
37.34	11.5671
37.56	4.76313
37.78	0.723671
38	6.82125
38.22	5.93586
38.44	0.956626
38.66	2.15585
38.88	9.94299
39.1	21.9441
39.32	29.3077
39.54	21.2681
39.76	9.72028
39.98	10.4823
40.2	2.32618
40.42	3.15971
40.64	3.91528
40.86	10.6526
41.08	6.45092
41.3	10.4362
41.52	47.3278
41.74	14.708
41.96	1.29528
42.18	19.2195
42.4	9.18558
42.62	4.28203
42.84	2.27155
43.06	16.4417
43.28	15.8301
43.5	9.03184
43.72	4.02987
43.94	4.81946
44.16	4.11113
44.38	0.160059
44.6	0.833334
44.82	23.1041
45.04	7.38515
45.26	20.672
45.48	6.41496
45.7	36.1354
45.92	2.58216
46.14	0.359261
46.36	5.46816
46.58	1.90282
46.8	6.5153
47.02	9.1834
47.24	0.18255
47.46	9.20278
47.68	73.6438
47.9	12.5431
48.12	89.7711
48.34	10.9874
48.56	27.0238
48.78	5.34005
49	10.8993
49.22	2.47154
49.44	0.975803
49.66	2.60756
49.88	4.38391
50.1	5.96416
50.32	10.3236
50.54	2.1463
50.76	8.28994
50.98	1.18776
51.2	6.34207
51.42	2.22658
51.64	16.0925
51.86	4.40744
52.08	7.29547
52.3	2.02969
52.52	12.8248
52.74	3.81213
52.96	3.93351
53.18	3.96716
53.4	5.87211
53.62	45.8561
53.84	16.041
54.06	2.08202
54.28	0.015083
54.5	2.92935
54.72	8.97457
54.94	1.77739
55.16	6.3872
55.38	1.38133
55.6	6.37693
55.82	7.68965
56.04	1.94418
56.26	9.83833
56.48	4.88351
56.7	2.71978
56.92	8.85931
57.14	4.90401
57.36	1.83856
57.58	16.76
57.8	2.05443
58.02	5.14689
58.24	8.14469
58.46	0.022905
58.68	9.96956
58.9	0.96037
59.12	6.112
59.34	7.03248
59.56	5.95206
59.78	9.8277
60	9.87192
60.22	3.56492
60.44	0.610386
60.66	9.41508
60.88	15.5126
61.1	1.00468
61.32	14.355
61.54	1.30266
61.76	4.4101
61.98	3.65599
62.2	2.83156
62.42	3.88737
62.64	3.12988
62.86	13.1393
63.08	1.05765
63.3	1.08135
63.52	2.6266
63.74	1.4138
63.96	4.28752
64.18	10.2934
64.4	7.07321
64.62	5.89752
64.84	11.669
65.06	4.47552
65.28	8.50762
65.5	10.4626
65.72	6.39008
65.94	10.4441
66.16	5.69523
66.38	4.75379
66.6	4.79972
66.82	6.01713
67.04	3.18784
67.26	1.38475
67.48	4.64831
67.7	1.82049
67.92	4.96745
68.14	4.12788
68.36	9.14345
68.58	5.11226
68.8	3.31952
69.02	5.35298
69.24	6.32712
69.46	7.37458
69.68	2.63325
69.9	0.415118
70.12	3.5806
70.34	2.56324
70.56	7.44997
70.78	1.38571
71	3.31949
71.22	12.1405
71.44	17.0367
71.66	6.03374
71.88	3.97203
72.1	1.68846
72.32	5.58005
72.54	8.52165
72.76	1.47211
72.98	0.529268
73.2	7.72344
73.42	0.112221
73.64	5.9271
73.86	3.97001
74.08	10.0619
74.3	3.11032
74.52	1.12894
74.74	1.17116
74.96	2.22025
75.18	4.20131
75.4	3.27442
75.62	6.00553
75.84	0.144445
76.06	13.9556
76.28	11.8798
76.5	4.8173
76.72	5.7564
76.94	7.9366
77.16	0.090296
77.38	2.11171
77.6	3.20715
77.82	1.26766
78.04	0.396452
78.26	2.55557
78.48	2.58791
78.7	2.60567
78.92	6.64873
79.14	5.5344
79.36	1.52007
79.58	3.31223
79.8	10.292
80.02	10.1162
80.24	7.24644
80.46	6.20801
80.68	4.19318
80.9	6.12495
81.12	5.06031
81.34	4.05
81.56	3.12191
81.78	4.13253
82	1.04035
82.22	4.00249
82.44	1.92924
82.66	5.66665
82.88	3.52371
83.1	7.43851
83.32	6.36052
83.54	3.29808
83.76	3.26249
83.98	0.301512
84.2	1.20349
84.42	0.312505
84.64	4.4331
84.86	0.520957
85.08	5.61044
85.3	4.76406
85.52	1.8556
85.74	0.921286
85.96	7.18443
86.18	3.1651
86.4	1.13895
86.62	2.14078
86.84	1.04831
87.06	1.92895
87.28	1.88307
87.5	6.86663
87.72	4.79622
87.94	7.72573
88.16	1.73183
88.38	5.71091
88.6	7.87063
88.82	3.02466
89.04	6.20904
89.26	0.478849
89.48	11.9591
89.7	3.12944
89.92	6.81228
