Measurement: Powder, Xray Data XY Processed
Mineral: Starkeyite
Rruff sample: R060321
Ideal chemistry: MgS^6+^O_4_4H_2_O
Locality: Epsom, Surrey, England
Source: Michael Scott
Description: White efflorescence
Diffraction sample description: Powder
Cell parameters: a: 5.9177(3) b: 13.5951(6) c: 7.9091(6) alpha: 90 beta: 90.870(4) gamma: 90 volume: 636.24(4) crystal system: monoclinic
x	intensity
5	0
5.22	8.34684
5.44	10.2582
5.66	11.5863
5.88	6.52749
6.1	14.8631
6.32	13.3908
6.54	3.97454
6.76	5.07178
6.98	13.0736
7.2	7.5389
7.42	4.52031
7.64	7.56562
7.86	15.5491
8.08	18.0628
8.3	4.07949
8.52	10.3039
8.74	16.0079
8.96	5.03961
9.18	16.0861
9.4	16.2244
9.62	13.814
9.84	0.405056
10.06	9.37506
10.28	22.9224
10.5	3.64883
10.72	0.293152
10.94	7.18234
11.16	9.93688
11.38	20.7077
11.6	9.25132
11.82	13.7867
12.04	24.4051
12.26	23.2907
12.48	12.4144
12.7	22.7091
12.92	36.6664
13.14	43.0814
13.36	23.8999
13.58	20.3744
13.8	32.7117
14.02	8.9887
14.24	9.58946
14.46	5.64587
14.68	9.77932
14.9	28.8977
15.12	22.1464
15.34	17.2336
15.56	18.6375
15.78	12.5054
16	13.4574
16.22	14.4801
16.44	102.807
16.66	22.4275
16.88	9.85732
17.1	24.6037
17.32	21.8737
17.54	11.0876
17.76	10.1235
17.98	2.94823
18.2	3.6899
18.42	10.6372
18.64	7.0955
18.86	49.3744
19.08	17.164
19.3	12.1725
19.52	14.3849
19.74	10.5955
19.96	276.123
20.18	15.7588
20.4	16.2905
20.62	8.45621
20.84	4.24362
21.06	8.22023
21.28	17.1887
21.5	10.9632
21.72	6.34736
21.94	3.86102
22.16	1.80988
22.38	12.0144
22.6	143.004
22.82	10.0773
23.04	13.2183
23.26	2.32556
23.48	30.1012
23.7	5.42204
23.92	4.83797
24.14	1.13323
24.36	6.62922
24.58	0.008987
24.8	37.8526
25.02	2.97174
25.24	1.91855
25.46	12.8601
25.68	10.5856
25.9	8.25448
26.12	31.8692
26.34	97.3713
26.56	12.8695
26.78	1.23943
27	5.23643
27.22	1.74103
27.44	12.5162
27.66	21.414
27.88	55.1332
28.1	19.6943
28.32	13.5868
28.54	6.94561
28.76	6.88863
28.98	16.7878
29.2	3.69716
29.42	13.4298
29.64	0.355288
29.86	4.82806
30.08	81.5558
30.3	107.216
30.52	82.6873
30.74	20.5186
30.96	39.1692
31.18	12.0719
31.4	10.0398
31.62	5.12417
31.84	0.856915
32.06	11.8196
32.28	18.97
32.5	64.3388
32.72	15.9613
32.94	35.9275
33.16	33.7001
33.38	3.20983
33.6	11.281
33.82	19.6652
34.04	6.99575
34.26	2.53574
34.48	7.78007
34.7	11.4835
34.92	21.1636
35.14	80.6015
35.36	13.8403
35.58	1.85477
35.8	1.23578
36.02	8.80254
36.24	20.4053
36.46	3.7225
36.68	56.9964
36.9	4.00181
37.12	71.7164
37.34	16.2137
37.56	16.3965
37.78	7.30763
38	11.9529
38.22	55.1442
38.44	39.4069
38.66	2.51566
38.88	34.4455
39.1	1.96366
39.32	0.355249
39.54	30.5989
39.76	104.261
39.98	30.6913
40.2	6.60473
40.42	18.2148
40.64	42.4247
40.86	9.70757
41.08	4.25079
41.3	12.3521
41.52	14.6029
41.74	0.233109
41.96	9.97605
42.18	19.1207
42.4	15.7035
42.62	9.88973
42.84	20.2886
43.06	14.2885
43.28	8.1128
43.5	23.3411
43.72	0.895071
43.94	10.2404
44.16	1.35528
44.38	12.1182
44.6	1.96968
44.82	3.05851
45.04	6.36932
45.26	6.23013
45.48	8.19844
45.7	5.66187
45.92	7.45515
46.14	37.8871
46.36	36.329
46.58	1.21091
46.8	7.11325
47.02	29.2766
47.24	7.25978
47.46	1.24337
47.68	29.1791
47.9	12.7469
48.12	14.7745
48.34	4.06299
48.56	36.67
48.78	19.4155
49	20.169
49.22	4.80816
49.44	3.05866
49.66	9.23269
49.88	0.602859
50.1	1.13448
50.32	0.056528
50.54	8.25022
50.76	23.9868
50.98	29.3322
51.2	14.8173
51.42	8.92754
51.64	10.5413
51.86	1.46307
52.08	3.34984
52.3	11.3623
52.52	4.15207
52.74	8.64656
52.96	1.7715
53.18	6.75678
53.4	22.4188
53.62	7.19485
53.84	8.35013
54.06	13.5051
54.28	7.40067
54.5	4.33246
54.72	3.15739
54.94	7.88151
55.16	7.9797
55.38	15.5247
55.6	26.1161
55.82	9.76965
56.04	5.31962
56.26	19.7656
56.48	21.0836
56.7	10.7892
56.92	1.07209
57.14	2.61875
57.36	9.69965
57.58	3.90345
57.8	6.08348
58.02	5.0907
58.24	16.1162
58.46	8.59856
58.68	12.3668
58.9	16.0724
59.12	15.8447
59.34	10.0545
59.56	13.4054
59.78	3.43906
60	0.613138
60.22	1.49765
60.44	14.3697
60.66	2.20874
60.88	11.0707
61.1	11.861
61.32	18.8013
61.54	31.437
61.76	3.33543
61.98	5.9033
62.2	4.12206
62.42	17.0229
62.64	11.3916
62.86	1.34906
63.08	16.6886
63.3	1.16044
63.52	5.16352
63.74	2.47929
63.96	5.18142
64.18	15.6956
64.4	23.9196
64.62	22.4078
64.84	7.6425
65.06	4.71346
65.28	5.77292
65.5	11.2505
65.72	10.3115
65.94	15.2915
66.16	8.15113
66.38	8.63296
66.6	7.94283
66.82	10.6783
67.04	4.04041
67.26	19.8062
67.48	9.69986
67.7	12.6851
67.92	10.4037
68.14	18.4377
68.36	7.10131
68.58	2.40348
68.8	9.04934
69.02	8.48039
69.24	4.95067
69.46	4.37963
69.68	6.74762
69.9	9.02379
70.12	14.6537
70.34	11.0791
70.56	8.11461
70.78	6.86019
71	5.88025
71.22	6.77646
71.44	7.88345
71.66	5.63643
71.88	9.33606
72.1	8.97391
72.32	12.887
72.54	11.2052
72.76	0.458215
72.98	5.96077
73.2	7.61909
73.42	0.304227
73.64	14.0119
73.86	5.69701
74.08	4.68332
74.3	5.82695
74.52	3.96972
74.74	0.200427
74.96	9.48959
75.18	3.81945
75.4	3.50294
75.62	10.0901
75.84	0.515911
76.06	15.975
76.28	16.0715
76.5	10.2837
76.72	0.581902
76.94	1.58774
77.16	1.36562
77.38	10.5739
77.6	11.7957
77.82	13.9125
78.04	3.89623
78.26	8.72815
78.48	5.82844
78.7	2.03854
78.92	4.92659
79.14	19.7614
79.36	5.61904
79.58	2.54809
79.8	7.14885
80.02	5.62526
80.24	10.1479
80.46	3.76873
80.68	6.54538
80.9	9.53913
81.12	7.23073
81.34	9.49456
81.56	8.74034
81.78	5.09091
82	13.0755
82.22	6.49972
82.44	6.75908
82.66	5.02911
82.88	1.78205
83.1	0.29843
83.32	7.42376
83.54	2.84008
83.76	1.76359
83.98	0.665145
84.2	2.4804
84.42	2.33107
84.64	7.05466
84.86	1.92617
85.08	8.94202
85.3	7.79196
85.52	13.4875
85.74	3.62108
85.96	2.38388
86.18	4.43914
86.4	8.18748
86.62	2.19063
86.84	0.362402
87.06	9.38228
87.28	10.4547
87.5	4.35607
87.72	1.52705
87.94	1.67482
88.16	9.59709
88.38	4.50871
88.6	6.79251
88.82	5.23055
89.04	4.44886
89.26	0.938278
89.48	12.5431
89.7	3.15092
89.92	3.78272
