Measurement: Powder, Xray Data XY Processed
Mineral: Stellerite
Rruff sample: R040174
Ideal chemistry: Ca_4_(Si_28_Al_8_)O_72_28H_2_O
Locality: unknown
Source: University of Arizona Mineral Museum
Description: Parallel aggregates of thin tabular brown crystals
Diffraction sample description: Powder
Measured chemistry: (Ca_3.89_Na_0.06_K_0.05_)_Σ=4_(Si_28.11_Al_7.89_)O_72_·15.18H_2_O; H_2_O estimated by difference
Cell parameters: a: 13.5957(7) b: 18.1769(6) c: 17.840(1) alpha: 90. beta: 89.89(3) gamma: 90. volume: 4408.8(4) crystal system: monoclinic
x	intensity
5	0
5.22	13.8701
5.44	3.76334
5.66	0.612221
5.88	11.8654
6.1	13.2984
6.32	15.1458
6.54	13.5176
6.76	13.0695
6.98	6.70624
7.2	4.31368
7.42	17.3582
7.64	5.86873
7.86	6.56194
8.08	1.45759
8.3	11.6621
8.52	4.49391
8.74	11.3214
8.96	0.143487
9.18	0.361412
9.4	14.2005
9.62	132.081
9.84	338.459
10.06	26.4448
10.28	15.2943
10.5	20.3541
10.72	1.23432
10.94	8.76845
11.16	4.43383
11.38	5.0537
11.6	3.08828
11.82	13.5752
12.04	1.78063
12.26	6.10733
12.48	10.5706
12.7	4.75679
12.92	5.78999
13.14	12.6826
13.36	7.51278
13.58	3.62958
13.8	9.95513
14.02	13.7774
14.24	7.71649
14.46	5.54905
14.68	3.55363
14.9	5.4906
15.12	5.38724
15.34	1.29293
15.56	1.24727
15.78	6.22462
16	2.092
16.22	5.85841
16.44	65.1304
16.66	10.8935
16.88	33.9448
17.1	9.02852
17.32	6.79686
17.54	3.65187
17.76	4.40017
17.98	11.0143
18.2	7.67205
18.42	4.18506
18.64	42.8005
18.86	9.14335
19.08	177.117
19.3	22.1582
19.52	32.6128
19.74	3.42514
19.96	37.9261
20.18	3.98575
20.4	8.93698
20.62	6.98257
20.84	160.953
21.06	7.94344
21.28	0.917742
21.5	4.99861
21.72	12.8655
21.94	863.181
22.16	44.9662
22.38	11.9629
22.6	5.05713
22.82	12.2246
23.04	0.51674
23.26	4.89264
23.48	2.88378
23.7	9.21128
23.92	123.166
24.14	9.13519
24.36	7.39732
24.58	6.52473
24.8	9.18582
25.02	0.172575
25.24	10.1586
25.46	8.15871
25.68	35.1069
25.9	22.7422
26.12	9.95023
26.34	106.244
26.56	10.6843
26.78	6.12511
27	0.289408
27.22	11.2839
27.44	1.51752
27.66	2.34198
27.88	4.66088
28.1	146.609
28.32	6.05178
28.54	8.10693
28.76	76.1558
28.98	30.0163
29.2	10.5696
29.42	116.632
29.64	229.578
29.86	210.407
30.08	30.9519
30.3	2.38436
30.52	1.2218
30.74	2.27992
30.96	3.10847
31.18	35.2572
31.4	7.37873
31.62	16.0753
31.84	8.26833
32.06	3.48235
32.28	63.1135
32.5	35.9426
32.72	2.23944
32.94	9.89083
33.16	52.9576
33.38	3.01035
33.6	3.29525
33.82	10.6824
34.04	1.36149
34.26	23.248
34.48	39.1752
34.7	5.50081
34.92	12.2177
35.14	26.9422
35.36	10.9327
35.58	17.1185
35.8	16.433
36.02	8.98683
36.24	27.7903
36.46	0.245626
36.68	26.1826
36.9	9.67161
37.12	5.02981
37.34	7.34743
37.56	2.59106
37.78	5.39446
38	6.40756
38.22	15.2099
38.44	33.5619
38.66	0.076014
38.88	28.7037
39.1	7.27007
39.32	5.1504
39.54	1.10379
39.76	20.0223
39.98	15.9602
40.2	2.43665
40.42	24.8474
40.64	29.9476
40.86	12.4639
41.08	8.54376
41.3	0.835602
41.52	2.05744
41.74	13.9973
41.96	6.95397
42.18	9.82267
42.4	6.68416
42.62	14.8431
42.84	8.26331
43.06	5.62768
43.28	40.1236
43.5	7.94383
43.72	12.3339
43.94	30.4338
44.16	1.45833
44.38	8.91098
44.6	28.7575
44.82	18.955
45.04	7.38131
45.26	11.8938
45.48	4.6653
45.7	10.9237
45.92	16.0552
46.14	3.1537
46.36	2.66199
46.58	4.80786
46.8	9.43112
47.02	6.71114
47.24	22.1051
47.46	4.23534
47.68	2.75825
47.9	10.4485
48.12	27.1346
48.34	6.93152
48.56	2.88928
48.78	4.22564
49	15.7183
49.22	14.4533
49.44	8.27156
49.66	6.62776
49.88	13.5915
50.1	41.6826
50.32	47.8735
50.54	45.463
50.76	9.79428
50.98	5.39155
51.2	21.0301
51.42	20.7795
51.64	5.30531
51.86	8.77428
52.08	4.20909
52.3	0.770593
52.52	10.0912
52.74	16.2943
52.96	5.19657
53.18	30.2065
53.4	16.5992
53.62	0.357977
53.84	7.32978
54.06	14.2123
54.28	15.0831
54.5	18.2111
54.72	7.65118
54.94	17.0125
55.16	6.00984
55.38	5.89055
55.6	0.051629
55.82	2.318
56.04	14.2593
56.26	13.8505
56.48	13.8768
56.7	5.82877
56.92	3.42226
57.14	1.75416
57.36	0.565903
57.58	1.37715
57.8	22.6042
58.02	34.4367
58.24	16.9753
58.46	15.5847
58.68	0.751789
58.9	2.39698
59.12	3.91545
59.34	33.2881
59.56	18.9911
59.78	10.3636
60	0.400126
60.22	10.7079
60.44	4.02207
60.66	0.271232
60.88	12.462
61.1	3.55894
61.32	11.6468
61.54	9.8892
61.76	11.7464
61.98	7.30133
62.2	4.29009
62.42	7.22806
62.64	5.2609
62.86	5.40042
63.08	7.44655
63.3	5.48613
63.52	3.41768
63.74	7.10794
63.96	7.74938
64.18	10.8486
64.4	8.76555
64.62	27.6681
64.84	15.4823
65.06	2.07356
65.28	0.083691
65.5	11.9375
65.72	9.81069
65.94	3.37636
66.16	6.03496
66.38	10.925
66.6	8.81432
66.82	15.0264
67.04	4.08904
67.26	4.08123
67.48	16.3009
67.7	18.4729
67.92	9.45161
68.14	5.13237
68.36	6.79232
68.58	2.85206
68.8	3.64026
69.02	8.58541
69.24	24.4295
69.46	29.447
69.68	6.70449
69.9	1.47353
70.12	4.49489
70.34	5.86743
70.56	13.3808
70.78	4.56703
71	8.59089
71.22	14.1373
71.44	4.15066
71.66	8.06099
71.88	13.98
72.1	1.73634
72.32	9.00908
72.54	9.06113
72.76	14.6834
72.98	12.3711
73.2	4.51474
73.42	4.74711
73.64	0.14921
73.86	1.50002
74.08	5.66989
74.3	9.1234
74.52	4.37577
74.74	5.07109
74.96	5.09651
75.18	2.00568
75.4	0.067994
75.62	7.32493
75.84	9.12361
76.06	18.6506
76.28	16.32
76.5	5.25606
76.72	6.01272
76.94	4.8586
77.16	11.8811
77.38	17.1619
77.6	3.35389
77.82	4.58454
78.04	4.6152
78.26	7.81187
78.48	4.98465
78.7	2.29059
78.92	0.476924
79.14	1.46311
79.36	7.70387
79.58	11.7344
79.8	8.75403
80.02	10.785
80.24	4.37195
80.46	2.50735
80.68	1.64073
80.9	5.74234
81.12	1.06796
81.34	0.118073
81.56	10.0461
81.78	3.1288
82	7.17232
82.22	7.0295
82.44	4.03378
82.66	12.274
82.88	9.37767
83.1	2.33689
83.32	4.53432
83.54	2.3091
83.76	5.41472
83.98	7.51694
84.2	9.72382
84.42	6.79199
84.64	1.93758
84.86	4.09864
85.08	7.89172
85.3	1.87318
85.52	3.9079
85.74	10.7605
85.96	3.87874
86.18	4.12548
86.4	4.79011
86.62	0.002994
86.84	8.21936
87.06	3.28842
87.28	6.23435
87.5	2.327
87.72	3.47079
87.94	5.60335
88.16	1.7161
88.38	8.75188
88.6	4.8164
88.82	8.90305
89.04	6.69228
89.26	0.072987
89.48	1.98474
89.7	7.34894
89.92	1.50622
