Measurement: Powder, Xray Data XY Processed
Mineral: Stellerite
Rruff sample: R060483
Ideal chemistry: Ca_4_(Si_28_Al_8_)O_72_28H_2_O
Locality: Sokolovskoye mine, Kustani Region, Kazakhstan
Source: Michael Scott
Description: Aggregate of orange chabazite and stellarite crystals
Diffraction sample description: Powder, mixed with chabazite
Measured chemistry: (Ca_3.93_Na_0.07_)_Σ=4_(Si_28.07_Al_7.93_)O_72_·21H_2_O
Cell parameters: a: 13.772(3) b: 18.192(4) c: 17.787(5) alpha: 90 beta: 90 gamma: 90 volume: 4450(1) crystal system: orthorhombic
x	intensity
5	0
5.22	2.00645
5.44	5.332
5.66	17.9305
5.88	1.77915
6.1	13.4648
6.32	5.91969
6.54	21.5783
6.76	9.10949
6.98	8.14546
7.2	9.75365
7.42	5.83213
7.64	2.24661
7.86	8.82718
8.08	0.309437
8.3	7.69148
8.52	8.99397
8.74	15.0768
8.96	5.17391
9.18	1.35698
9.4	29.1028
9.62	49.1316
9.84	29.1676
10.06	10.4575
10.28	2.6236
10.5	8.08852
10.72	3.53263
10.94	5.05028
11.16	9.47844
11.38	4.8573
11.6	5.82202
11.82	10.0511
12.04	8.19429
12.26	4.0482
12.48	0.292416
12.7	5.37144
12.92	57.3867
13.14	6.46664
13.36	0.453924
13.58	4.48836
13.8	8.38122
14.02	11.6241
14.24	2.0939
14.46	3.79499
14.68	8.91895
14.9	4.61956
15.12	1.43791
15.34	0.903945
15.56	7.63004
15.78	19.3965
16	67.1092
16.22	1.9813
16.44	6.60608
16.66	4.63204
16.88	0.623745
17.1	9.68798
17.32	1.70469
17.54	7.84429
17.76	87.01
17.98	6.02808
18.2	3.00198
18.42	8.09019
18.64	9.09307
18.86	6.67522
19.08	46.689
19.3	30.5673
19.52	10.9699
19.74	4.75179
19.96	6.4688
20.18	2.60975
20.4	4.47896
20.62	197.29
20.84	28.9776
21.06	2.61622
21.28	8.5365
21.5	6.24589
21.72	4.52691
21.94	222.456
22.16	22.8292
22.38	26.6779
22.6	2.68555
22.82	5.47847
23.04	46.5535
23.26	1.93751
23.48	0.794799
23.7	6.79862
23.92	4.34931
24.14	11.2302
24.36	3.22888
24.58	0.766728
24.8	8.62637
25.02	13.5829
25.24	8.52506
25.46	3.49995
25.68	17.1716
25.9	59.3186
26.12	5.63209
26.34	20.1074
26.56	10.1398
26.78	1.18497
27	1.22488
27.22	9.19747
27.44	9.35327
27.66	23.0185
27.88	11.9141
28.1	48.216
28.32	5.56851
28.54	9.97572
28.76	7.88444
28.98	2.23835
29.2	7.68958
29.42	54.1023
29.64	45.579
29.86	16.8319
30.08	3.87088
30.3	3.44598
30.52	70.8279
30.74	32.0104
30.96	31.265
31.18	15.6375
31.4	5.11942
31.62	5.51442
31.84	9.94548
32.06	4.89786
32.28	75.3774
32.5	4.78071
32.72	9.4022
32.94	11.9991
33.16	5.34349
33.38	22.4851
33.6	0.573985
33.82	7.54962
34.04	0.55586
34.26	3.40104
34.48	40.091
34.7	20.0287
34.92	33.6903
35.14	23.367
35.36	4.91387
35.58	0.90687
35.8	13.0998
36.02	18.3038
36.24	9.07279
36.46	6.48331
36.68	8.14101
36.9	4.4036
37.12	7.68326
37.34	0.950617
37.56	0.079016
37.78	0.286866
38	10.2195
38.22	5.12611
38.44	17.1247
38.66	2.60903
38.88	1.4336
39.1	2.87871
39.32	10.7618
39.54	0.620934
39.76	6.67049
39.98	9.59778
40.2	8.5373
40.42	6.62674
40.64	4.71825
40.86	8.69364
41.08	0.866108
41.3	5.2845
41.52	8.20331
41.74	9.14854
41.96	5.13245
42.18	3.87389
42.4	4.9961
42.62	12.7207
42.84	0.436288
43.06	15.1867
43.28	15.0562
43.5	6.51151
43.72	0.965713
43.94	16.0977
44.16	7.36674
44.38	8.52434
44.6	17.8179
44.82	9.41302
45.04	7.8776
45.26	6.5733
45.48	8.15752
45.7	6.37039
45.92	4.89959
46.14	4.29009
46.36	2.39724
46.58	4.34516
46.8	0.358978
47.02	7.38872
47.24	5.01183
47.46	7.92872
47.68	8.65411
47.9	13.3866
48.12	2.24687
48.34	7.06395
48.56	5.21732
48.78	8.07324
49	1.97146
49.22	5.22955
49.44	6.06775
49.66	7.80073
49.88	1.52692
50.1	17.6442
50.32	0.625136
50.54	33.7492
50.76	9.81683
50.98	3.76479
51.2	2.2353
51.42	3.52395
51.64	14.5419
51.86	14.7736
52.08	1.00116
52.3	6.25289
52.52	9.78271
52.74	10.0867
52.96	13.0561
53.18	26.1347
53.4	6.11869
53.62	6.01762
53.84	2.89774
54.06	3.83956
54.28	12.9508
54.5	12.0856
54.72	5.03992
54.94	9.56303
55.16	13.3725
55.38	2.74799
55.6	0.701128
55.82	16.5748
56.04	18.828
56.26	6.84614
56.48	3.89291
56.7	4.71393
56.92	1.4748
57.14	5.38531
57.36	0.691204
57.58	5.19546
57.8	13.1828
58.02	2.99899
58.24	3.03472
58.46	3.79415
58.68	2.84836
58.9	2.90409
59.12	4.12432
59.34	19.9438
59.56	20.1893
59.78	7.4025
60	8.75516
60.22	6.51318
60.44	4.75616
60.66	1.10652
60.88	11.0742
61.1	12.0115
61.32	13.8243
61.54	2.66093
61.76	7.04515
61.98	7.00032
62.2	8.91103
62.42	1.94922
62.64	8.89207
62.86	3.40727
63.08	0.273555
63.3	2.4519
63.52	7.57504
63.74	3.68878
63.96	4.79047
64.18	3.13867
64.4	7.13305
64.62	3.20281
64.84	4.151
65.06	2.06629
65.28	11.386
65.5	9.28844
65.72	8.22389
65.94	14.1814
66.16	5.33057
66.38	10.3371
66.6	6.05827
66.82	2.30372
67.04	6.28224
67.26	14.5038
67.48	1.60652
67.7	10.7354
67.92	1.88044
68.14	2.81576
68.36	6.80391
68.58	3.56109
68.8	1.26458
69.02	8.42767
69.24	11.3926
69.46	5.52348
69.68	3.96671
69.9	4.86274
70.12	12.981
70.34	3.84544
70.56	7.96238
70.78	1.856
71	8.81222
71.22	5.5521
71.44	5.52701
71.66	8.4081
71.88	1.37857
72.1	2.4765
72.32	12.71
72.54	5.69052
72.76	1.67731
72.98	10.6787
73.2	8.94741
73.42	2.12805
73.64	4.42673
73.86	6.53633
74.08	9.52067
74.3	6.51666
74.52	4.50651
74.74	10.1883
74.96	2.41958
75.18	4.49716
75.4	12.6492
75.62	3.59312
75.84	2.77055
76.06	2.3805
76.28	0.371292
76.5	7.73133
76.72	12.6529
76.94	9.83164
77.16	10.0631
77.38	1.87536
77.6	2.96713
77.82	7.24614
78.04	7.34254
78.26	10.1147
78.48	4.12397
78.7	6.13216
78.92	3.38548
79.14	7.34856
79.36	10.3332
79.58	5.12119
79.8	6.13435
80.02	8.96776
80.24	10.7053
80.46	0.559349
80.68	1.61111
80.9	4.82699
81.12	4.96269
81.34	9.66828
81.56	4.63855
81.78	2.74368
82	2.96211
82.22	4.97239
82.44	5.91309
82.66	5.06965
82.88	9.14005
83.1	5.13794
83.32	10.23
83.54	0.136316
83.76	6.41785
83.98	5.48639
84.2	6.47117
84.42	0.331256
84.64	2.3916
84.86	2.5571
85.08	5.66922
85.3	5.75
85.52	0.690759
85.74	5.85232
85.96	4.10387
86.18	0.959238
86.4	4.93582
86.62	8.00148
86.84	4.00243
87.06	3.8646
87.28	2.1556
87.5	7.65895
87.72	9.59633
87.94	1.57004
88.16	5.43731
88.38	2.30902
88.6	2.31111
88.82	0.294627
89.04	6.37467
89.26	13.3191
89.48	0.464305
89.7	10.698
89.92	2.61643
