Measurement: Powder, Xray Data XY Processed
Mineral: Stellerite
Rruff sample: R070535
Ideal chemistry: Ca_4_(Si_28_Al_8_)O_72_28H_2_O
Locality: Upper Clackamas River, Clackamas County, Oregon, USA
Source: James Shigley
Description: Sheaflike aggregates of white, tabular crystals
Diffraction sample description: Powder
Measured chemistry: (Ca_3.91_K_0.09_)_Σ=4_(Si_28.09_Al_7.91_)O_72_·22.5H_2_O; trace amounts of Na; H_2_O estimated by difference
Cell parameters: a: 13.6001(5) b: 18.2208(9) c: 17.832(1) alpha: 90 beta: 90 gamma: 90 volume: 4418.7(3) crystal system: orthorhombic
x	intensity
5	0
5.22	21.9989
5.44	12.0181
5.66	3.40827
5.88	14.1366
6.1	1.50871
6.32	17.8497
6.54	17.0341
6.76	11.3246
6.98	3.39356
7.2	8.5228
7.42	8.61417
7.64	1.0849
7.86	13.6565
8.08	0.859049
8.3	0.991428
8.52	15.7178
8.74	22.5487
8.96	1.30886
9.18	9.89864
9.4	27.8508
9.62	516.111
9.84	225.402
10.06	19.1934
10.28	10.0963
10.5	8.59798
10.72	6.27029
10.94	5.71228
11.16	12.3713
11.38	4.75929
11.6	8.7261
11.82	8.74958
12.04	5.06788
12.26	5.68978
12.48	11.8144
12.7	2.00913
12.92	10.7583
13.14	7.94339
13.36	5.85634
13.58	7.60873
13.8	5.68168
14.02	8.21483
14.24	5.94994
14.46	7.92128
14.68	16.6764
14.9	2.77825
15.12	5.66358
15.34	10.3443
15.56	7.15044
15.78	2.83139
16	2.28388
16.22	29.173
16.44	35.1682
16.66	33.4287
16.88	18.3084
17.1	6.16647
17.32	12.1237
17.54	12.6989
17.76	9.45614
17.98	0.805737
18.2	0.938503
18.42	10.7784
18.64	14.3051
18.86	10.7395
19.08	519.637
19.3	16.8113
19.52	39.4361
19.74	19.7649
19.96	23.8413
20.18	6.7098
20.4	0.302763
20.62	4.51975
20.84	121.223
21.06	0.286528
21.28	1.3577
21.5	6.17089
21.72	33.6524
21.94	914.878
22.16	98.5976
22.38	23.6817
22.6	14.19
22.82	9.64201
23.04	12.3323
23.26	10.7702
23.48	19.4339
23.7	22.072
23.92	73.8973
24.14	1.76958
24.36	15.0094
24.58	0.471317
24.8	5.32452
25.02	4.92786
25.24	25.5325
25.46	15.0196
25.68	12.045
25.9	14.7471
26.12	25.1137
26.34	111.808
26.56	15.0833
26.78	17.5724
27	6.04221
27.22	0.762394
27.44	20.4119
27.66	1.49015
27.88	34.4357
28.1	112.085
28.32	3.37199
28.54	9.42436
28.76	54.3852
28.98	12.1579
29.2	15.7641
29.42	297.694
29.64	39.2629
29.86	85.3501
30.08	42.4585
30.3	9.37378
30.52	2.70486
30.74	6.02523
30.96	8.08909
31.18	23.1703
31.4	5.42234
31.62	32.038
31.84	0.726696
32.06	15.379
32.28	155.68
32.5	19.0983
32.72	8.31721
32.94	3.42445
33.16	31.5672
33.38	11.6966
33.6	8.85422
33.82	2.91644
34.04	6.04143
34.26	19.8544
34.48	28.5332
34.7	7.35115
34.92	44.9886
35.14	6.97359
35.36	18.6534
35.58	4.99204
35.8	5.87953
36.02	15.8147
36.24	28.6333
36.46	8.04275
36.68	19.3922
36.9	3.65453
37.12	4.55897
37.34	5.19367
37.56	7.554
37.78	9.75378
38	15.9638
38.22	29.3799
38.44	12.3414
38.66	19.3531
38.88	20.9243
39.1	10.2794
39.32	5.97938
39.54	6.00513
39.76	16.0158
39.98	4.97733
40.2	11.2587
40.42	16.1765
40.64	11.8847
40.86	24.3762
41.08	9.08034
41.3	16.9465
41.52	13.8112
41.74	5.61118
41.96	3.9431
42.18	2.33244
42.4	2.46616
42.62	17.7439
42.84	6.48944
43.06	32.1805
43.28	12.6991
43.5	12.1859
43.72	13.2337
43.94	36.3858
44.16	18.0289
44.38	15.5867
44.6	42.2424
44.82	1.02816
45.04	13.0349
45.26	4.83668
45.48	15.0893
45.7	9.34801
45.92	19.6169
46.14	4.43634
46.36	1.85408
46.58	9.32004
46.8	13.6377
47.02	6.63866
47.24	10.1128
47.46	3.97624
47.68	5.47289
47.9	28.1702
48.12	6.61471
48.34	3.73472
48.56	10.0761
48.78	8.5495
49	8.88284
49.22	2.43472
49.44	6.00715
49.66	10.6262
49.88	13.4955
50.1	19.2905
50.32	10.3119
50.54	1.97943
50.76	10.4597
50.98	2.35217
51.2	20.4183
51.42	12.2543
51.64	6.94661
51.86	3.63278
52.08	13.0324
52.3	1.43147
52.52	16.5232
52.74	25.0799
52.96	27.087
53.18	10.1368
53.4	3.83836
53.62	6.99654
53.84	9.80869
54.06	3.7223
54.28	11.8394
54.5	7.76426
54.72	8.45968
54.94	8.24099
55.16	19.956
55.38	17.7417
55.6	7.93361
55.82	10.118
56.04	18.8326
56.26	6.83178
56.48	3.00885
56.7	6.7074
56.92	12.1973
57.14	1.948
57.36	8.79089
57.58	16.8917
57.8	31.3069
58.02	34.1352
58.24	2.64071
58.46	3.72186
58.68	5.89567
58.9	11.9333
59.12	11.5964
59.34	26.0825
59.56	26.3885
59.78	7.79849
60	3.02456
60.22	4.69299
60.44	0.710587
60.66	10.14
60.88	12.5506
61.1	3.726
61.32	11.2531
61.54	5.4764
61.76	7.46886
61.98	6.65778
62.2	9.68502
62.42	3.60441
62.64	6.51224
62.86	9.40506
63.08	11.6662
63.3	7.60993
63.52	11.3277
63.74	0.063685
63.96	0.354092
64.18	2.78051
64.4	8.8236
64.62	9.7475
64.84	9.74121
65.06	1.74917
65.28	0.329899
65.5	9.34655
65.72	2.81788
65.94	6.01271
66.16	17.0246
66.38	7.00716
66.6	18.9507
66.82	1.14545
67.04	8.81789
67.26	11.9468
67.48	11.0185
67.7	8.06752
67.92	3.86482
68.14	8.44851
68.36	7.3677
68.58	6.51475
68.8	7.88297
69.02	21.378
69.24	19.4886
69.46	6.85347
69.68	5.77155
69.9	1.82339
70.12	5.01131
70.34	15.3196
70.56	2.21032
70.78	0.093662
71	9.95189
71.22	1.44389
71.44	0.636213
71.66	12.3639
71.88	5.98065
72.1	5.65417
72.32	2.62077
72.54	7.18902
72.76	10.4866
72.98	5.62627
73.2	1.84855
73.42	9.87244
73.64	7.72412
73.86	4.23094
74.08	5.6528
74.3	23.2427
74.52	3.35895
74.74	4.48395
74.96	11.4803
75.18	4.46151
75.4	7.51699
75.62	3.44887
75.84	10.137
76.06	6.66896
76.28	1.40269
76.5	15.1084
76.72	9.1339
76.94	14.2983
77.16	10.5725
77.38	4.83859
77.6	9.07059
77.82	15.3945
78.04	18.6174
78.26	3.97458
78.48	4.37286
78.7	4.42274
78.92	0.452247
79.14	8.78726
79.36	9.84009
79.58	6.89958
79.8	9.99519
80.02	2.8328
80.24	1.8325
80.46	0.265647
80.68	10.3945
80.9	9.23526
81.12	9.2693
81.34	5.25516
81.56	8.08037
81.78	9.08531
82	9.84542
82.22	8.66211
82.44	6.53306
82.66	8.58184
82.88	9.25396
83.1	13.0098
83.32	5.99624
83.54	6.96077
83.76	3.9082
83.98	8.01158
84.2	5.2268
84.42	9.27238
84.64	5.44109
84.86	4.57347
85.08	7.94309
85.3	7.94136
85.52	1.1566
85.74	10.1377
85.96	14.2554
86.18	5.76058
86.4	4.22644
86.62	2.10311
86.84	7.09964
87.06	0.095331
87.28	7.15048
87.5	2.82753
87.72	0.005626
87.94	9.00988
88.16	3.13961
88.38	13.1938
88.6	1.69846
88.82	5.47495
89.04	11.684
89.26	9.77833
89.48	15.5922
89.7	10.519
89.92	2.51184
