Measurement: Powder, Xray Data XY Processed
Mineral: Stibarsen
Rruff sample: R070299
Ideal chemistry: SbAs
Locality: Varutrask, Skelleftea, Vasterbotten, Sweden
Source: James Shigley
Description: Grey metallic platy fragment associated with arsenic
Diffraction sample description: Powder, mixed with arsenic; a: 4.1392(5), alpha: 54.123(6)
Measured chemistry: gray: (Sb_0.92_As_0.08_)_Σ=1_As_1.00_; black rings: (As_0.98_Sb_0.02_)_Σ=1_ (arsenic)
Cell parameters: a: 4.0258(1) b: 4.0258(1) c: 10.8275(8) alpha: 90 beta: 90 gamma: 120 volume: 151.97(1) crystal system: hexagonal
x	intensity
5	0
5.22	10.332
5.44	9.87358
5.66	8.62944
5.88	5.43698
6.1	13.4429
6.32	6.58783
6.54	4.83151
6.76	2.41723
6.98	9.04765
7.2	9.4207
7.42	12.0944
7.64	2.74083
7.86	2.46465
8.08	2.24389
8.3	7.80559
8.52	0.854951
8.74	7.92152
8.96	11.1829
9.18	6.83192
9.4	5.36543
9.62	8.2642
9.84	2.51751
10.06	2.53594
10.28	9.53324
10.5	13.4273
10.72	5.72363
10.94	3.88029
11.16	6.98868
11.38	6.66834
11.6	5.75478
11.82	5.91738
12.04	1.23471
12.26	9.11327
12.48	0.617087
12.7	4.51999
12.92	9.71777
13.14	8.65216
13.36	8.5689
13.58	12.3479
13.8	8.2092
14.02	12.0496
14.24	5.96664
14.46	3.89123
14.68	2.50469
14.9	5.51124
15.12	4.25704
15.34	1.53156
15.56	10.4837
15.78	8.57281
16	0.254339
16.22	6.86447
16.44	3.04935
16.66	13.1782
16.88	6.15364
17.1	4.15578
17.32	3.05355
17.54	0.935812
17.76	12.021
17.98	4.038
18.2	14.9813
18.42	3.68068
18.64	4.57275
18.86	7.44636
19.08	7.32421
19.3	7.37031
19.52	15.2186
19.74	4.06658
19.96	9.77966
20.18	2.48043
20.4	12.2848
20.62	5.30518
20.84	2.38899
21.06	10.4221
21.28	11.4365
21.5	2.37071
21.72	3.23305
21.94	7.46144
22.16	5.33887
22.38	13.5343
22.6	2.33002
22.82	5.39241
23.04	4.66647
23.26	0.029982
23.48	1.3438
23.7	2.49932
23.92	12.8955
24.14	12.9955
24.36	16.123
24.58	46.68
24.8	75.513
25.02	25.5368
25.24	54.0957
25.46	9.88765
25.68	4.76579
25.9	1.33579
26.12	3.4367
26.34	3.553
26.56	23.6416
26.78	42.7259
27	25.2897
27.22	7.57566
27.44	12.3122
27.66	10.2522
27.88	13.0035
28.1	14.3588
28.32	1.68765
28.54	7.75306
28.76	7.61346
28.98	18.1475
29.2	6.77146
29.42	6.25398
29.64	13.9871
29.86	3.17984
30.08	33.989
30.3	78.544
30.52	612.815
30.74	95.4356
30.96	18.9457
31.18	18.7647
31.4	6.8521
31.62	4.14242
31.84	12.593
32.06	17.3614
32.28	151.859
32.5	17.0004
32.72	11.7325
32.94	15.413
33.16	1.40777
33.38	8.33106
33.6	16.5221
33.82	10.5375
34.04	3.07168
34.26	10.7282
34.48	10.6018
34.7	6.91007
34.92	11.8835
35.14	11.7697
35.36	15.7552
35.58	1.84857
35.8	2.56053
36.02	9.11314
36.24	4.92854
36.46	12.163
36.68	11.2492
36.9	14.1614
37.12	3.79743
37.34	19.6474
37.56	11.6668
37.78	11.6087
38	7.97301
38.22	5.93416
38.44	6.86619
38.66	8.69768
38.88	6.76744
39.1	14.5726
39.32	8.33712
39.54	6.56443
39.76	5.1493
39.98	15.5434
40.2	10.8036
40.42	9.59023
40.64	7.75932
40.86	12.8984
41.08	6.73026
41.3	14.6613
41.52	1.3539
41.74	16.9142
41.96	42.002
42.18	129.4
42.4	143.399
42.62	25.3809
42.84	14.7407
43.06	1.19524
43.28	0.317926
43.5	5.02719
43.72	0.589705
43.94	16.8453
44.16	60.3307
44.38	10.7657
44.6	7.42816
44.82	61.2699
45.04	116.647
45.26	59.9178
45.48	24.4097
45.7	14.7683
45.92	5.31623
46.14	6.03603
46.36	5.46061
46.58	11.7653
46.8	9.24873
47.02	8.80421
47.24	1.58036
47.46	0.092386
47.68	21.0112
47.9	13.212
48.12	19.0335
48.34	41.7191
48.56	7.21255
48.78	14.2055
49	9.90587
49.22	10.1776
49.44	29.3278
49.66	41.8374
49.88	14.7622
50.1	0.80566
50.32	4.97938
50.54	20.1366
50.76	23.4961
50.98	10.9938
51.2	0.380795
51.42	10.5908
51.64	21.8487
51.86	16.9795
52.08	33.8846
52.3	15.5718
52.52	13.827
52.74	8.51718
52.96	1.56569
53.18	7.13813
53.4	9.64083
53.62	0.828794
53.84	7.89202
54.06	1.07157
54.28	11.4248
54.5	14.1289
54.72	10.7145
54.94	17.4799
55.16	52.4598
55.38	53.6102
55.6	47.585
55.82	19.9022
56.04	7.49566
56.26	0.022617
56.48	13.9943
56.7	11.7077
56.92	6.4701
57.14	8.04201
57.36	1.64305
57.58	2.64641
57.8	3.18397
58.02	0.227613
58.24	2.06661
58.46	3.91442
58.68	6.00267
58.9	6.63731
59.12	15.7391
59.34	29.6821
59.56	22.782
59.78	7.00405
60	10.9682
60.22	14.5946
60.44	1.82843
60.66	10.0368
60.88	3.12416
61.1	9.12806
61.32	2.06336
61.54	0.83787
61.76	1.58999
61.98	17.4478
62.2	7.79469
62.42	0.598042
62.64	5.80555
62.86	9.61807
63.08	7.48288
63.3	17.7868
63.52	44.416
63.74	19.8042
63.96	7.20552
64.18	3.30598
64.4	7.37207
64.62	12.3559
64.84	9.2558
65.06	11.0398
65.28	9.72993
65.5	13.3719
65.72	19.7338
65.94	30.3012
66.16	39.6158
66.38	14.832
66.6	4.4569
66.82	0.534067
67.04	6.5802
67.26	4.36729
67.48	9.28135
67.7	11.9362
67.92	5.69603
68.14	8.22572
68.36	13.9529
68.58	19.7626
68.8	6.43529
69.02	19.095
69.24	11.4164
69.46	17.2869
69.68	17.5734
69.9	29.8501
70.12	34.0709
70.34	13.907
70.56	17.2538
70.78	11.6124
71	6.28526
71.22	4.9337
71.44	12.6308
71.66	11.8685
71.88	1.16996
72.1	15.6661
72.32	0.032618
72.54	12.6007
72.76	9.09713
72.98	5.10016
73.2	4.65993
73.42	0.299662
73.64	17.1144
73.86	29.7766
74.08	18.3481
74.3	29.2207
74.52	11.5251
74.74	12.1323
74.96	13.697
75.18	14.0772
75.4	12.9703
75.62	14.0312
75.84	7.05093
76.06	7.16493
76.28	5.69537
76.5	11.4708
76.72	9.06088
76.94	12.467
77.16	0.760551
77.38	3.08548
77.6	2.45632
77.82	5.4877
78.04	13.0636
78.26	5.96544
78.48	9.24579
78.7	7.57476
78.92	8.75681
79.14	11.6677
79.36	4.27189
79.58	11.904
79.8	19.1715
80.02	17.6209
80.24	6.97869
80.46	6.68263
80.68	9.01895
80.9	10.7779
81.12	19.0967
81.34	26.6679
81.56	15.8857
81.78	7.88548
82	12.6675
82.22	8.99183
82.44	15.3324
82.66	7.23185
82.88	15.0885
83.1	6.5099
83.32	21.247
83.54	18.4399
83.76	6.91623
83.98	14.916
84.2	7.43309
84.42	11.998
84.64	12.7579
84.86	3.07487
85.08	15.2288
85.3	3.29888
85.52	8.27822
85.74	4.89285
85.96	18.3593
86.18	2.50478
86.4	8.70093
86.62	19.4667
86.84	10.2119
87.06	12.6839
87.28	15.6291
87.5	13.695
87.72	9.91137
87.94	0.229248
88.16	17.1718
88.38	15.9842
88.6	6.53511
88.82	6.73488
89.04	7.45943
89.26	5.44671
89.48	1.69677
89.7	3.71358
89.92	13.0417
