Measurement: Powder, Xray Data XY Processed
Mineral: Stibiotantalite
Rruff sample: R050599
Ideal chemistry: Sb^3+^Ta^5+^O_4_
Locality: Shengus, Pakistan
Source: Wayne Thompson
Description: Yellow fragment
Diffraction sample description: Powder
Measured chemistry: Sb_1.00_(Ta_0.88_Nb_0.11_)_Î£=1_O_4_
Cell parameters: a: 4.9251(1) b: 5.54462(8) c: 11.8232(2) alpha: 90 beta: 90 gamma: 90 volume: 322.866(7) crystal system: orthorhombic
x	intensity
5	0
5.22	6.7521
5.44	11.998
5.66	10.8486
5.88	7.59884
6.1	6.54547
6.32	11.9171
6.54	8.9028
6.76	14.9527
6.98	0.191274
7.2	3.62599
7.42	4.06972
7.64	2.3871
7.86	16.1545
8.08	2.55208
8.3	0.129279
8.52	6.18368
8.74	15.4855
8.96	1.13698
9.18	5.20016
9.4	9.22226
9.62	2.15615
9.84	1.92229
10.06	8.83005
10.28	0.643612
10.5	2.10423
10.72	6.83198
10.94	5.97293
11.16	7.55738
11.38	0.442644
11.6	10.3659
11.82	5.46
12.04	8.55783
12.26	1.81013
12.48	2.95505
12.7	5.17342
12.92	3.34184
13.14	9.91848
13.36	7.12479
13.58	10.3417
13.8	7.57016
14.02	8.38583
14.24	7.56385
14.46	0.216217
14.68	1.13262
14.9	21.531
15.12	12.5168
15.34	8.50112
15.56	2.76853
15.78	6.64826
16	5.49463
16.22	6.43047
16.44	13.283
16.66	14.0771
16.88	11.8651
17.1	3.03777
17.32	3.58027
17.54	1.52814
17.76	6.62797
17.98	9.61046
18.2	11.5389
18.42	7.58295
18.64	0.523115
18.86	6.55284
19.08	15.7214
19.3	6.90956
19.52	106.994
19.74	3.53627
19.96	8.62555
20.18	0.202499
20.4	0.165768
20.62	2.84699
20.84	11.8631
21.06	7.98274
21.28	11.0565
21.5	2.90743
21.72	5.76345
21.94	5.76083
22.16	9.99514
22.38	3.75106
22.6	11.6296
22.82	8.88742
23.04	1.29889
23.26	4.53459
23.48	5.33122
23.7	8.93236
23.92	6.47439
24.14	3.7825
24.36	8.07109
24.58	11.0835
24.8	1.26721
25.02	0.852766
25.24	59.1016
25.46	60.6999
25.68	8.33245
25.9	11.2331
26.12	7.15533
26.34	12.0257
26.56	4.97981
26.78	11.7286
27	4.47313
27.22	13.7911
27.44	4.43243
27.66	6.85008
27.88	7.36894
28.1	1.72311
28.32	8.25448
28.54	1031.72
28.76	59.3003
28.98	43.2509
29.2	5.22015
29.42	4.34252
29.64	5.69798
29.86	12.0506
30.08	32.4164
30.3	403.043
30.52	13.2882
30.74	6.06182
30.96	4.43334
31.18	4.92469
31.4	8.43879
31.62	6.86378
31.84	7.15629
32.06	18.401
32.28	77.6069
32.5	0.030943
32.72	8.11714
32.94	0.29521
33.16	99.074
33.38	169.017
33.6	1.42457
33.82	0.057139
34.04	3.56958
34.26	0.873329
34.48	5.40939
34.7	5.67843
34.92	5.87773
35.14	9.39296
35.36	9.26569
35.58	5.98926
35.8	39.0989
36.02	13.3456
36.24	4.21423
36.46	120.955
36.68	18.6888
36.9	7.84683
37.12	4.12194
37.34	10.349
37.56	9.36153
37.78	1.55851
38	7.71636
38.22	0.958402
38.44	8.70013
38.66	10.599
38.88	0.750085
39.1	8.62749
39.32	9.58871
39.54	14.4536
39.76	130.125
39.98	6.84966
40.2	3.24889
40.42	12.3121
40.64	2.31802
40.86	12.4313
41.08	10.7748
41.3	3.93917
41.52	9.34161
41.74	8.72928
41.96	13.6764
42.18	12.8379
42.4	14.9281
42.62	6.15276
42.84	9.65052
43.06	15.5493
43.28	0.258282
43.5	2.94165
43.72	0.706925
43.94	30.1555
44.16	4.80852
44.38	2.49865
44.6	9.09624
44.82	110.819
45.04	9.96999
45.26	4.21629
45.48	16.6248
45.7	111.203
45.92	0.626414
46.14	16.5803
46.36	12.375
46.58	31.078
46.8	11.1336
47.02	9.14341
47.24	0.851402
47.46	3.72861
47.68	19.61
47.9	12.7694
48.12	87.1952
48.34	4.40307
48.56	0.158385
48.78	3.40249
49	6.12512
49.22	0.85256
49.44	9.65263
49.66	20.5353
49.88	2.33661
50.1	113.949
50.32	26.9367
50.54	15.78
50.76	31.0926
50.98	7.6304
51.2	2.53012
51.42	7.32365
51.64	0.921021
51.86	12.8662
52.08	15.6481
52.3	8.50806
52.52	17.6164
52.74	60.225
52.96	33.9174
53.18	2.96227
53.4	11.4627
53.62	40.7624
53.84	10.2346
54.06	5.74101
54.28	15.1698
54.5	10.9862
54.72	2.52304
54.94	21.6254
55.16	97.7033
55.38	16.28
55.6	10.1725
55.82	8.34896
56.04	19.6719
56.26	12.5192
56.48	13.3503
56.7	17.3707
56.92	8.78396
57.14	3.65655
57.36	26.8188
57.58	12.6316
57.8	3.01875
58.02	5.87472
58.24	46.3853
58.46	3.63362
58.68	8.70735
58.9	5.85483
59.12	33.6437
59.34	15.528
59.56	13.6693
59.78	1.47712
60	6.2596
60.22	35.0171
60.44	25.4522
60.66	9.53532
60.88	97.9642
61.1	28.6902
61.32	6.31672
61.54	0.239195
61.76	2.0507
61.98	4.50533
62.2	14.7333
62.42	6.36053
62.64	0.21603
62.86	147.585
63.08	17.9852
63.3	1.89443
63.52	0.273664
63.74	8.5729
63.96	8.01978
64.18	20.5271
64.4	2.37426
64.62	42.8294
64.84	14.8514
65.06	3.44019
65.28	9.01609
65.5	8.53335
65.72	2.78091
65.94	8.92396
66.16	2.0336
66.38	9.81585
66.6	3.74688
66.82	20.4579
67.04	23.0215
67.26	8.87632
67.48	7.00297
67.7	14.0008
67.92	4.01931
68.14	1.41207
68.36	9.82959
68.58	3.0314
68.8	6.17366
69.02	6.3776
69.24	3.69144
69.46	13.0749
69.68	56.9123
69.9	28.7638
70.12	4.89595
70.34	4.22615
70.56	0.313675
70.78	5.60613
71	1.75712
71.22	10.9456
71.44	4.42778
71.66	11.2419
71.88	5.18006
72.1	24.5594
72.32	11.8074
72.54	15.7648
72.76	14.642
72.98	11.1474
73.2	4.0611
73.42	4.33221
73.64	6.32039
73.86	0.82799
74.08	0.667978
74.3	0.309358
74.52	12.0614
74.74	5.05107
74.96	24.9564
75.18	18.7374
75.4	4.49169
75.62	10.0371
75.84	10.2071
76.06	2.60635
76.28	8.23444
76.5	33.7594
76.72	20.3529
76.94	18.1209
77.16	3.20514
77.38	1.88868
77.6	53.9874
77.82	42.5356
78.04	3.72172
78.26	42.9425
78.48	18.745
78.7	1.02756
78.92	7.60495
79.14	5.85078
79.36	9.87886
79.58	3.4761
79.8	7.56982
80.02	12.1826
80.24	33.8383
80.46	28.805
80.68	1.82925
80.9	21.8675
81.12	18.8981
81.34	13.674
81.56	12.9954
81.78	5.5916
82	1.47649
82.22	31.9482
82.44	11.2326
82.66	6.4457
82.88	1.59832
83.1	2.59993
83.32	1.71216
83.54	8.42438
83.76	3.61124
83.98	17.5863
84.2	15.7606
84.42	15.3031
84.64	8.63012
84.86	0.120416
85.08	7.95097
85.3	6.46099
85.52	18.0814
85.74	14.5837
85.96	20.1699
86.18	10.6128
86.4	53.5625
86.62	25.0241
86.84	22.3883
87.06	2.27523
87.28	0.69446
87.5	8.09559
87.72	1.09487
87.94	2.57744
88.16	11.2503
88.38	14.8604
88.6	1.4618
88.82	13.9835
89.04	5.36767
89.26	5.4326
89.48	7.60682
89.7	4.26767
89.92	6.89401
