Measurement: Powder, Xray Data XY Processed
Mineral: Stibnite
Rruff sample: R050016
Ideal chemistry: Sb^3+^_2_S^2-^_3_
Locality: Romania
Source: Eugene Schlepp
Description: Group of lead-gray prismatic crystals
Diffraction sample description: Powder
Measured chemistry: (Sb_.996_As_.004_)_2_S_3_
Cell parameters: a: 11.297(1) b: 3.8352(7) c: 11.227(3) alpha: 90. beta: 90. gamma: 90. volume: 486.4(1) crystal system: orthorhombic
x	intensity
5	0
5.22	9.662
5.44	5.363
5.66	11.388
5.88	6.848
6.1	8.153
6.32	7.662
6.54	8.049
6.76	11.303
6.98	11.847
7.2	1.252
7.42	7.689
7.64	3.077
7.86	4.352
8.08	5.644
8.3	8.843
8.52	0.271
8.74	2.445
8.96	3.698
9.18	1.322
9.4	0.758
9.62	11.967
9.84	1.955
10.06	10.044
10.28	5.234
10.5	2.373
10.72	2.491
10.94	9.518
11.16	10.557
11.38	6.544
11.6	4.64
11.82	8.855
12.04	4.815
12.26	6.028
12.48	2.166
12.7	0.088
12.92	10.044
13.14	9.031
13.36	1.922
13.58	1.058
13.8	4.883
14.02	3.784
14.24	2.618
14.46	0.435
14.68	0.778
14.9	3.975
15.12	7.826
15.34	7.953
15.56	9.903
15.78	34.682
16	6.318
16.22	8.197
16.44	1.986
16.66	1.845
16.88	2.796
17.1	1.285
17.32	8.925
17.54	28.638
17.76	10.652
17.98	7.643
18.2	4.878
18.42	1.991
18.64	2.199
18.86	1.282
19.08	2.453
19.3	0.497
19.52	3.65
19.74	5.534
19.96	5.529
20.18	2.425
20.4	6.287
20.62	1.694
20.84	7.245
21.06	2.006
21.28	0.088
21.5	6.745
21.72	5.739
21.94	4.659
22.16	4.625
22.38	38.786
22.6	4.796
22.82	6.08
23.04	2.86
23.26	2.442
23.48	1.111
23.7	5.717
23.92	8.254
24.14	4.628
24.36	2.004
24.58	23.45
24.8	20.787
25.02	91.237
25.24	24.564
25.46	6.731
25.68	11.994
25.9	12.194
26.12	5.862
26.34	1.531
26.56	6.409
26.78	3.838
27	4.017
27.22	1.13
27.44	1.894
27.66	1.107
27.88	0.65
28.1	4.864
28.32	4.51
28.54	28.745
28.76	9.427
28.98	1.793
29.2	42.875
29.42	61.15
29.64	3.527
29.86	9.226
30.08	8.725
30.3	6.769
30.52	8.286
30.74	5.576
30.96	1.714
31.18	2.532
31.4	2.411
31.62	6.756
31.84	10.458
32.06	2.873
32.28	24.337
32.5	64.776
32.72	14.022
32.94	8.406
33.16	1.477
33.38	17.525
33.6	20.821
33.82	1.662
34.04	3.879
34.26	6.118
34.48	17.299
34.7	2.551
34.92	8.78
35.14	5.986
35.36	10.636
35.58	54.776
35.8	19.954
36.02	11.998
36.24	1.91
36.46	3.024
36.68	2.465
36.9	5.06
37.12	16.657
37.34	5.942
37.56	2.123
37.78	6.188
38	3.044
38.22	1
38.44	0.273
38.66	3.377
38.88	0.163
39.1	6.227
39.32	1.528
39.54	3.735
39.76	14.313
39.98	5.039
40.2	11.789
40.42	11.105
40.64	15.526
40.86	10.079
41.08	7.478
41.3	3.931
41.52	7.532
41.74	0.091
41.96	2.234
42.18	10.488
42.4	0.719
42.62	7.844
42.84	7.012
43.06	20.882
43.28	19.879
43.5	12.001
43.72	2.051
43.94	4.209
44.16	5.278
44.38	4.257
44.6	3.215
44.82	4.247
45.04	2.991
45.26	1.564
45.48	9.896
45.7	1.6
45.92	1.862
46.14	5.326
46.36	0.419
46.58	17.118
46.8	41.208
47.02	38.177
47.24	18.888
47.46	24.801
47.68	14.871
47.9	0.762
48.12	7.375
48.34	9.512
48.56	5.82
48.78	5.43
49	0.362
49.22	3.32
49.44	9.427
49.66	3.719
49.88	1.847
50.1	5.93
50.32	4.794
50.54	10.074
50.76	3.406
50.98	2.354
51.2	1.147
51.42	5.291
51.64	0.246
51.86	4.9
52.08	0.713
52.3	5.802
52.52	1.824
52.74	6.847
52.96	14.529
53.18	11.112
53.4	12.955
53.62	6.942
53.84	3.066
54.06	11.034
54.28	33.536
54.5	23.814
54.72	12.985
54.94	1.851
55.16	3.266
55.38	0.412
55.6	0.935
55.82	0.238
56.04	5.523
56.26	2.692
56.48	8.209
56.7	2.015
56.92	5.186
57.14	2.287
57.36	6.66
57.58	0.774
57.8	7.346
58.02	3.293
58.24	4.304
58.46	1.205
58.68	4.874
58.9	5.575
59.12	0.38
59.34	5.117
59.56	6.95
59.78	6.601
60	9.075
60.22	7.1
60.44	4.578
60.66	10.603
60.88	9.821
61.1	6.224
61.32	2.463
61.54	2.62
61.76	3.774
61.98	2.875
62.2	1.23
62.42	4.219
62.64	5.947
62.86	4.597
63.08	0.55
63.3	2.272
63.52	2.988
63.74	5.848
63.96	4.761
64.18	3.672
64.4	6.989
64.62	8.992
64.84	9.029
65.06	4.097
65.28	7.12
65.5	4.14
65.72	1.77
65.94	2.529
66.16	12.641
66.38	5.817
66.6	7.823
66.82	9.655
67.04	5.692
67.26	1.841
67.48	2.015
67.7	5.04
67.92	1.047
68.14	8.04
68.36	1.912
68.58	0.807
68.8	1.608
69.02	6.412
69.24	5.218
69.46	3.033
69.68	2.84
69.9	5.582
70.12	0.199
70.34	8.705
70.56	5.764
70.78	0.642
71	5.644
71.22	3.674
71.44	1.751
71.66	3.888
71.88	12.884
72.1	12.071
72.32	4.946
72.54	5.062
72.76	2.143
72.98	6.282
73.2	5.471
73.42	6.706
73.64	1.239
73.86	8.935
74.08	0.064
74.3	0.142
74.52	2.074
74.74	8.179
74.96	3.261
75.18	3.259
75.4	1.129
75.62	1.069
75.84	1.143
76.06	7.203
76.28	4.127
76.5	1.232
76.72	3.153
76.94	4.146
77.16	1.05
77.38	3.77
77.6	3.723
77.82	0.185
78.04	4.673
78.26	6.325
78.48	3.113
78.7	6.905
78.92	2.421
79.14	11.402
79.36	2.218
79.58	6.206
79.8	8.131
80.02	3.024
80.24	1.918
80.46	7.068
80.68	4.163
80.9	3.399
81.12	12.526
81.34	1.822
81.56	2.956
81.78	3.141
82	10.307
82.22	1.494
82.44	1.445
82.66	1.497
82.88	8.358
83.1	9.518
83.32	3.496
83.54	13.507
83.76	4.361
83.98	9.224
84.2	10.311
84.42	1.9
84.64	3.036
84.86	3.025
85.08	2.103
85.3	6.309
85.52	4.317
85.74	4.246
85.96	9.299
86.18	3.526
86.4	1.608
86.62	2.687
86.84	3.831
87.06	1.096
87.28	3.244
87.5	8.547
87.72	9.579
87.94	4.707
88.16	9.831
88.38	4.933
88.6	0.166
88.82	0.89
89.04	3.089
89.26	0.026
89.48	1.81
89.7	4.58
89.92	3.728
