Measurement: Powder, Xray Data XY Processed
Mineral: Stichtite
Rruff sample: R050328
Ideal chemistry: Mg_6_Cr^3+^_2_CO_3_(OH)_16_4H_2_O
Locality: Dundas, Tasmania, Australia
Source: Marcus Origlieri
Description: Aggregate of contorted purple plates
Diffraction sample description: Powder
Measured chemistry: Mg_6.00_(Cr_1.11_Al_0.71_Fe^3+^_0.18_)_Σ=2_(CO_3_)(OH)_16_·4H_2_O
Cell parameters: a: 3.0868(4) b: 3.0868(4) c: 23.517(6) alpha: 90 beta: 90 gamma: 120 volume: 194.06(5) crystal system: hexagonal
x	intensity
5	0
5.22	11.563
5.44	11.487
5.66	2.88
5.88	31.521
6.1	34.64
6.32	38.749
6.54	5.651
6.76	3.786
6.98	23.1
7.2	9.97
7.42	10.985
7.64	6.637
7.86	29.213
8.08	13.861
8.3	16.199
8.52	19.656
8.74	19.32
8.96	5.685
9.18	11.808
9.4	23.558
9.62	8.892
9.84	1.187
10.06	17.672
10.28	37.142
10.5	0.672
10.72	1.535
10.94	13.753
11.16	71.526
11.38	2570.16
11.6	219.097
11.82	82.604
12.04	118.444
12.26	117.002
12.48	87.533
12.7	12.446
12.92	0.103
13.14	6.458
13.36	14.793
13.58	8.104
13.8	2.554
14.02	9.614
14.24	10.442
14.46	15.387
14.68	19.982
14.9	5.975
15.12	4.595
15.34	12.658
15.56	11.27
15.78	3.66
16	6.765
16.22	8.557
16.44	6.013
16.66	15.619
16.88	9.602
17.1	0.025
17.32	19.594
17.54	14.355
17.76	16.823
17.98	1.904
18.2	11.856
18.42	11.527
18.64	72.241
18.86	19.136
19.08	8.078
19.3	0.19
19.52	14.827
19.74	6.179
19.96	5.946
20.18	7.164
20.4	7.467
20.62	19.134
20.84	8.566
21.06	5.208
21.28	9.266
21.5	4.052
21.72	4.717
21.94	9.435
22.16	3.996
22.38	10.277
22.6	12.814
22.82	1428.23
23.04	57.137
23.26	12.168
23.48	15.738
23.7	17.754
23.92	32.097
24.14	20.569
24.36	16.478
24.58	31.568
24.8	53.518
25.02	24.517
25.24	1.728
25.46	3.201
25.68	14.606
25.9	11.23
26.12	7.559
26.34	11.399
26.56	7.501
26.78	21.345
27	10.298
27.22	3.891
27.44	6.669
27.66	8.401
27.88	8.953
28.1	3.934
28.32	0.471
28.54	9.391
28.76	4.175
28.98	6.26
29.2	8.136
29.42	12.214
29.64	4.407
29.86	4.95
30.08	14.176
30.3	9.297
30.52	7.388
30.74	4.71
30.96	8.583
31.18	12.784
31.4	8.652
31.62	0.6
31.84	16.386
32.06	13.98
32.28	11.538
32.5	9.492
32.72	4.311
32.94	0.663
33.16	1.874
33.38	14.47
33.6	2.419
33.82	8.67
34.04	11.517
34.26	10.576
34.48	98.276
34.7	16.915
34.92	14.225
35.14	3.238
35.36	11.131
35.58	11.719
35.8	6.828
36.02	3.259
36.24	3.738
36.46	0.221
36.68	11.557
36.9	13.107
37.12	1.011
37.34	14.265
37.56	5.865
37.78	4.811
38	8.142
38.22	7.923
38.44	3.246
38.66	22.8
38.88	54.88
39.1	30.094
39.32	14.861
39.54	11.975
39.76	4.197
39.98	15.696
40.2	4.964
40.42	2.912
40.64	4.319
40.86	13.568
41.08	7.882
41.3	11.356
41.52	13.594
41.74	10.212
41.96	0.172
42.18	5.348
42.4	17.716
42.62	8.919
42.84	2.543
43.06	10.269
43.28	2.334
43.5	2.536
43.72	8.724
43.94	20.766
44.16	1.454
44.38	3.107
44.6	9.489
44.82	13.216
45.04	16.132
45.26	5.077
45.48	7.222
45.7	18.594
45.92	40.064
46.14	44.787
46.36	17.61
46.58	22.664
46.8	10.34
47.02	3.236
47.24	5.011
47.46	8.715
47.68	14.344
47.9	3.924
48.12	12.479
48.34	17.044
48.56	17.066
48.78	24.971
49	16.878
49.22	16.538
49.44	12.857
49.66	7.658
49.88	12.786
50.1	7.264
50.32	1.341
50.54	11.317
50.76	5.276
50.98	11.501
51.2	4.5
51.42	10.405
51.64	20.321
51.86	26.109
52.08	20.043
52.3	16.427
52.52	8.6
52.74	8.755
52.96	15.067
53.18	6.631
53.4	4.087
53.62	12.101
53.84	2.784
54.06	5.461
54.28	1.53
54.5	5.329
54.72	4.718
54.94	16.121
55.16	19.489
55.38	8.554
55.6	5.297
55.82	12.547
56.04	9.906
56.26	8.037
56.48	12.969
56.7	14.832
56.92	7.846
57.14	12.584
57.36	8.143
57.58	5.461
57.8	10.266
58.02	1.716
58.24	12.307
58.46	4.247
58.68	14.179
58.9	3.057
59.12	1.037
59.34	5.863
59.56	2.889
59.78	19.761
60	40.652
60.22	13.366
60.44	12.67
60.66	6.537
60.88	1.607
61.1	12.147
61.32	53.35
61.54	18.189
61.76	6.547
61.98	11.823
62.2	14.104
62.42	3.374
62.64	11.256
62.86	2.057
63.08	11.214
63.3	5.717
63.52	3.008
63.74	9.93
63.96	0.494
64.18	9.977
64.4	2.305
64.62	9.174
64.84	12.72
65.06	6.659
65.28	9.308
65.5	15.269
65.72	12.483
65.94	12.602
66.16	0.853
66.38	11.368
66.6	5.926
66.82	7.144
67.04	4.488
67.26	3.705
67.48	11.021
67.7	8.167
67.92	8.368
68.14	8.257
68.36	8.318
68.58	8.03
68.8	14.803
69.02	9.376
69.24	11.43
69.46	4.339
69.68	13.309
69.9	9.122
70.12	8.032
70.34	9.877
70.56	10.845
70.78	16.13
71	12.409
71.22	9.088
71.44	0.518
71.66	10.139
71.88	3.949
72.1	1.398
72.32	8.262
72.54	3.998
72.76	21.538
72.98	8.86
73.2	15.384
73.42	15.109
73.64	20.76
73.86	13.996
74.08	1.229
74.3	7.635
74.52	7.805
74.74	7.257
74.96	3.578
75.18	12.943
75.4	19.561
75.62	2.774
75.84	4.798
76.06	8.529
76.28	5.64
76.5	9.611
76.72	12.569
76.94	0.149
77.16	1.003
77.38	5.008
77.6	1.15
77.82	11.239
78.04	1.736
78.26	9.462
78.48	9.612
78.7	15.545
78.92	8.863
79.14	1.267
79.36	5.727
79.58	1.48
79.8	0.292
80.02	9.317
80.24	1.296
80.46	9.499
80.68	14.702
80.9	5.661
81.12	12.72
81.34	10.537
81.56	8.863
81.78	0.266
82	8.23
82.22	21.363
82.44	0.705
82.66	11.846
82.88	8.804
83.1	8.654
83.32	8.812
83.54	5.881
83.76	2.864
83.98	15.874
84.2	7.229
84.42	9.046
84.64	5.947
84.86	4.655
85.08	6.488
85.3	3.523
85.52	15.253
85.74	8.906
85.96	14.834
86.18	7.677
86.4	9.355
86.62	7.694
86.84	6.345
87.06	20.178
87.28	15.241
87.5	15.655
87.72	7.176
87.94	2.317
88.16	1.544
88.38	9.709
88.6	2.978
88.82	11.139
89.04	14.622
89.26	6.703
89.48	8.019
89.7	8.852
89.92	9.715
