Measurement: Powder, Xray Data XY Processed
Mineral: Stromeyerite
Rruff sample: R060908
Ideal chemistry: Cu^1+^Ag^1+^S^2-^
Locality: Cobalt, Ontario, Canada
Source: Royal Ontario Museum
Description: Black metallic massive with conchoidal fracture
Diffraction sample description: Powder
Measured chemistry: Cu_1.01_Ag_0.99_S
Cell parameters: a: 4.0661(1) b: 6.6308(3) c: 7.9792(3) alpha: 90 beta: 90 gamma: 90 volume: 215.132(9) crystal system: orthorhombic
x	intensity
5	0
5.22	3.91071
5.44	10.6455
5.66	6.53986
5.88	9.56736
6.1	4.99128
6.32	10.3863
6.54	15.5105
6.76	4.0391
6.98	9.41951
7.2	7.72589
7.42	5.19982
7.64	6.87405
7.86	17.4105
8.08	3.69224
8.3	4.38695
8.52	0.713992
8.74	3.00943
8.96	14.253
9.18	5.20769
9.4	2.60593
9.62	6.49126
9.84	2.59256
10.06	10.4852
10.28	6.40617
10.5	3.59598
10.72	10.5385
10.94	0.439768
11.16	9.46099
11.38	1.46057
11.6	1.50548
11.82	2.45664
12.04	0.54975
12.26	4.37374
12.48	1.72468
12.7	7.80545
12.92	8.66525
13.14	6.39391
13.36	8.59439
13.58	3.94742
13.8	3.8928
14.02	11.9519
14.24	9.09254
14.46	1.94832
14.68	2.20268
14.9	9.43521
15.12	9.22678
15.34	1.93759
15.56	2.86311
15.78	7.58322
16	8.47444
16.22	5.27589
16.44	10.2588
16.66	9.25234
16.88	5.78548
17.1	1.97128
17.32	7.01662
17.54	7.15372
17.76	7.32715
17.98	6.51503
18.2	8.76188
18.42	7.00862
18.64	11.1445
18.86	11.1554
19.08	7.97953
19.3	10.5296
19.52	4.40159
19.74	0.353155
19.96	3.28176
20.18	5.17738
20.4	2.38402
20.62	4.30286
20.84	2.5618
21.06	4.86445
21.28	4.86055
21.5	16.9906
21.72	2.92759
21.94	11.9357
22.16	7.05709
22.38	16.2073
22.6	4.24357
22.82	3.17273
23.04	4.3437
23.26	6.42228
23.48	1.09114
23.7	0.995136
23.92	5.88712
24.14	1.12984
24.36	4.86863
24.58	7.56442
24.8	5.1934
25.02	0.861823
25.24	11.8759
25.46	3.55489
25.68	18.4608
25.9	11.2584
26.12	3.26345
26.34	8.02449
26.56	3.02624
26.78	12.9194
27	75.9448
27.22	9.12049
27.44	2.9947
27.66	6.15101
27.88	3.46469
28.1	17.4038
28.32	9.55598
28.54	11.5817
28.76	6.98866
28.98	16.0456
29.2	79.2724
29.42	8.75199
29.64	1.67524
29.86	1.72924
30.08	4.57747
30.3	6.40256
30.52	6.36202
30.74	7.35918
30.96	5.15333
31.18	5.57478
31.4	3.60539
31.62	6.0788
31.84	4.65463
32.06	5.40188
32.28	2.29601
32.5	1.91845
32.72	8.78175
32.94	2.44964
33.16	11.0173
33.38	5.76825
33.6	5.47251
33.82	3.58676
34.04	2.39328
34.26	180.094
34.48	37.9541
34.7	4.07196
34.92	5.72312
35.14	12.2431
35.36	21.3995
35.58	7.73163
35.8	6.94767
36.02	10.1737
36.24	7.0675
36.46	0.526671
36.68	7.82963
36.9	1.91545
37.12	5.99812
37.34	8.89985
37.56	10.8961
37.78	0.744466
38	12.3582
38.22	7.45953
38.44	3.70958
38.66	4.81351
38.88	3.81595
39.1	1.80808
39.32	4.89176
39.54	1.14326
39.76	2.07546
39.98	6.23533
40.2	7.18402
40.42	11.0933
40.64	5.97983
40.86	3.01347
41.08	6.89894
41.3	6.62875
41.52	5.5506
41.74	12.5459
41.96	3.35859
42.18	4.78607
42.4	3.31251
42.62	7.87862
42.84	4.65334
43.06	15.4423
43.28	5.98275
43.5	6.54096
43.72	21.3378
43.94	3.38496
44.16	19.611
44.38	5.58532
44.6	51.6264
44.82	3.63552
45.04	1.96035
45.26	5.12454
45.48	84.3659
45.7	8.58103
45.92	1.1079
46.14	8.40362
46.36	2.45207
46.58	4.06167
46.8	17.2592
47.02	7.30685
47.24	4.3192
47.46	1.80827
47.68	3.32418
47.9	8.40849
48.12	7.26647
48.34	20.2306
48.56	7.40893
48.78	6.34705
49	5.49613
49.22	5.892
49.44	7.0828
49.66	3.75973
49.88	6.4701
50.1	11.5583
50.32	5.05458
50.54	6.98509
50.76	10.9158
50.98	0.592367
51.2	7.13176
51.42	4.91687
51.64	6.32164
51.86	5.96964
52.08	5.78793
52.3	16.0016
52.52	26.5831
52.74	4.88291
52.96	20.73
53.18	5.81465
53.4	0.855396
53.62	31.994
53.84	9.43026
54.06	9.7523
54.28	15.9712
54.5	4.74425
54.72	2.75023
54.94	7.23012
55.16	5.42441
55.38	3.82374
55.6	7.94398
55.82	10.8943
56.04	8.03046
56.26	5.98046
56.48	5.91812
56.7	5.04245
56.92	8.93427
57.14	4.71595
57.36	13.3496
57.58	2.2467
57.8	8.12661
58.02	24.9306
58.24	13.8225
58.46	9.86222
58.68	6.5808
58.9	23.5883
59.12	6.42975
59.34	3.53051
59.56	11.6053
59.78	2.77359
60	8.98307
60.22	11.2776
60.44	3.43077
60.66	11.5782
60.88	8.61638
61.1	4.66588
61.32	3.03421
61.54	6.11896
61.76	15.3006
61.98	9.36
62.2	10.2759
62.42	8.87135
62.64	4.01697
62.86	21.0267
63.08	0.895203
63.3	6.74552
63.52	3.67905
63.74	9.28135
63.96	2.40484
64.18	15.0836
64.4	3.83938
64.62	4.70036
64.84	0.601017
65.06	5.25152
65.28	7.36081
65.5	25.3359
65.72	26.4231
65.94	3.30389
66.16	7.34796
66.38	8.24946
66.6	9.60882
66.82	5.87502
67.04	7.01293
67.26	4.99139
67.48	6.08793
67.7	7.0008
67.92	6.06944
68.14	1.08426
68.36	7.34011
68.58	11.4198
68.8	13.762
69.02	7.46428
69.24	7.4781
69.46	7.61341
69.68	3.4947
69.9	6.40765
70.12	16.3215
70.34	2.23189
70.56	7.3925
70.78	6.01186
71	3.81782
71.22	2.25703
71.44	8.10099
71.66	5.93917
71.88	2.76286
72.1	6.11806
72.32	6.28468
72.54	7.26372
72.76	7.09959
72.98	10.0707
73.2	1.3809
73.42	9.3176
73.64	9.42534
73.86	11.3005
74.08	11.9531
74.3	3.83356
74.52	5.23908
74.74	0.856758
74.96	8.99746
75.18	4.16395
75.4	17.9067
75.62	23.7972
75.84	0.960872
76.06	15.1113
76.28	0.213433
76.5	9.66405
76.72	23.7758
76.94	15.3922
77.16	3.60264
77.38	21.1921
77.6	11.2286
77.82	9.37198
78.04	9.51543
78.26	5.67738
78.48	8.04483
78.7	4.14971
78.92	7.1844
79.14	2.47013
79.36	0.302147
79.58	4.26354
79.8	6.28262
80.02	0.340474
80.24	1.3806
80.46	4.65159
80.68	12.3316
80.9	2.97772
81.12	2.86259
81.34	11.6615
81.56	2.43814
81.78	6.24761
82	11.6275
82.22	6.63584
82.44	4.71783
82.66	1.94309
82.88	1.64819
83.1	10.7663
83.32	1.06643
83.54	8.06788
83.76	2.07386
83.98	6.09283
84.2	6.02874
84.42	9.61398
84.64	10.784
84.86	3.50855
85.08	2.56325
85.3	3.44818
85.52	9.14829
85.74	8.95524
85.96	8.90113
86.18	1.01131
86.4	7.00415
86.62	16.09
86.84	4.09666
87.06	1.90208
87.28	1.23807
87.5	3.16487
87.72	1.32503
87.94	0.37609
88.16	6.75008
88.38	5.78069
88.6	13.7025
88.82	7.74144
89.04	3.89681
89.26	6.52984
89.48	5.86655
89.7	13.9139
89.92	8.4133
