Measurement: Powder, Xray Data XY Processed
Mineral: Stromeyerite
Rruff sample: R060909
Ideal chemistry: Cu^1+^Ag^1+^S^2-^
Locality: Gowganda, Ontario, Canada
Source: Royal Ontario Museum
Description: Grey, metallic, pseudohexagonal flakes, conchoidal fracture
Diffraction sample description: Powder
Measured chemistry: Ag_1.00_Cu_1.00_S_1.00_
Cell parameters: a: 4.0660(3) b: 6.6315(5) c: 7.9796(5) alpha: 90 beta: 90 gamma: 90 volume: 215.16(2) crystal system: orthorhombic
x	intensity
5	0
5.22	5.72119
5.44	5.28677
5.66	2.29445
5.88	12.1404
6.1	7.42611
6.32	8.71251
6.54	1.89123
6.76	7.14157
6.98	3.16441
7.2	4.41038
7.42	14.6275
7.64	7.65707
7.86	2.77074
8.08	5.16968
8.3	8.36046
8.52	2.8119
8.74	6.07585
8.96	4.40163
9.18	7.81062
9.4	3.03208
9.62	8.12533
9.84	3.31639
10.06	8.66068
10.28	1.82591
10.5	9.76375
10.72	3.86943
10.94	0.154615
11.16	8.98487
11.38	1.16376
11.6	0.935555
11.82	1.12684
12.04	0.263372
12.26	4.20798
12.48	3.19557
12.7	3.30482
12.92	6.19725
13.14	3.25167
13.36	8.21239
13.58	5.31982
13.8	6.35499
14.02	3.42552
14.24	2.28378
14.46	3.47546
14.68	5.50403
14.9	1.47999
15.12	2.54756
15.34	1.58732
15.56	2.53222
15.78	10.49
16	1.50135
16.22	5.2923
16.44	3.15066
16.66	6.16113
16.88	8.97281
17.1	8.05826
17.32	3.01793
17.54	10.8385
17.76	5.91322
17.98	2.98068
18.2	1.05563
18.42	5.00098
18.64	2.99886
18.86	8.26232
19.08	2.25982
19.3	5.26017
19.52	8.13371
19.74	8.12966
19.96	1.25787
20.18	2.12004
20.4	2.01507
20.62	7.93933
20.84	5.99305
21.06	2.02931
21.28	0.603652
21.5	7.51194
21.72	4.42379
21.94	1.65794
22.16	4.72969
22.38	9.57145
22.6	6.52288
22.82	1.57467
23.04	9.60203
23.26	9.34613
23.48	4.45091
23.7	3.65619
23.92	3.56798
24.14	0.442297
24.36	8.4413
24.58	4.2228
24.8	0.92172
25.02	9.92058
25.24	2.87535
25.46	5.70672
25.68	5.56792
25.9	13.3099
26.12	1.00842
26.34	8.06804
26.56	6.91801
26.78	1.69441
27	100.728
27.22	3.79779
27.44	4.82808
27.66	2.88573
27.88	6.91751
28.1	7.9521
28.32	4.98203
28.54	1.98739
28.76	0.049488
28.98	4.96314
29.2	21.9712
29.42	9.92161
29.64	3.85468
29.86	6.67658
30.08	4.60295
30.3	6.58394
30.52	7.65667
30.74	2.66371
30.96	12.7421
31.18	0.290171
31.4	7.78059
31.62	8.69518
31.84	4.74261
32.06	3.77629
32.28	5.74523
32.5	0.88237
32.72	4.82374
32.94	5.68834
33.16	11.386
33.38	9.99832
33.6	0.793203
33.82	5.53008
34.04	15.2579
34.26	36.8302
34.48	63.1789
34.7	11.0163
34.92	1.5692
35.14	9.41545
35.36	27.4229
35.58	0.647342
35.8	7.9543
36.02	4.05472
36.24	14.0956
36.46	3.42404
36.68	0.25132
36.9	10.3859
37.12	5.71524
37.34	3.02454
37.56	2.13105
37.78	3.18504
38	5.94568
38.22	0.038414
38.44	3.93985
38.66	4.85165
38.88	2.71099
39.1	4.52669
39.32	10.6078
39.54	10.6313
39.76	5.41991
39.98	4.43597
40.2	12.3966
40.42	7.30842
40.64	8.51392
40.86	6.56306
41.08	10.7065
41.3	4.01564
41.52	4.17503
41.74	10.1978
41.96	4.04623
42.18	5.11812
42.4	5.96159
42.62	6.69007
42.84	16.4482
43.06	7.15811
43.28	3.28581
43.5	3.77068
43.72	10.1968
43.94	0.854831
44.16	2.63658
44.38	7.15447
44.6	26.9009
44.82	9.11195
45.04	14.1886
45.26	6.46596
45.48	15.549
45.7	13.4596
45.92	6.74074
46.14	1.05803
46.36	6.26135
46.58	0.230899
46.8	20.6473
47.02	5.76555
47.24	2.56842
47.46	0.567734
47.68	3.57012
47.9	17.3634
48.12	6.6257
48.34	16.6399
48.56	9.83457
48.78	4.86569
49	0.882819
49.22	8.71216
49.44	8.75435
49.66	4.80131
49.88	2.81874
50.1	7.78321
50.32	2.72193
50.54	9.06278
50.76	4.22923
50.98	0.177083
51.2	7.5761
51.42	7.35661
51.64	2.96949
51.86	0.380611
52.08	6.23673
52.3	6.94261
52.52	16.5879
52.74	2.35964
52.96	9.82433
53.18	3.31287
53.4	4.19684
53.62	6.38407
53.84	11.2574
54.06	9.54969
54.28	10.8787
54.5	7.22211
54.72	8.39859
54.94	5.90556
55.16	0.660292
55.38	4.63307
55.6	7.00069
55.82	4.21157
56.04	9.43314
56.26	1.93729
56.48	6.16432
56.7	9.11048
56.92	9.05233
57.14	12.9503
57.36	1.4575
57.58	2.68476
57.8	4.49796
58.02	15.3077
58.24	21.3253
58.46	0.280649
58.68	5.14712
58.9	14.8463
59.12	7.07461
59.34	1.35353
59.56	4.18815
59.78	12.1672
60	9.42587
60.22	4.2906
60.44	5.4449
60.66	8.3138
60.88	4.01404
61.1	3.79755
61.32	9.3233
61.54	4.30643
61.76	8.02736
61.98	3.03743
62.2	5.33706
62.42	1.05181
62.64	4.08683
62.86	7.07268
63.08	14.0772
63.3	14.1588
63.52	6.81335
63.74	9.67535
63.96	0.67819
64.18	17.8854
64.4	9.80989
64.62	12.4468
64.84	1.58798
65.06	4.44754
65.28	3.23882
65.5	10.1933
65.72	16.137
65.94	7.06193
66.16	12.0018
66.38	1.8657
66.6	1.92602
66.82	10.2662
67.04	4.42634
67.26	9.42127
67.48	12.4256
67.7	11.6238
67.92	2.6885
68.14	8.91136
68.36	1.10291
68.58	4.37788
68.8	3.37567
69.02	3.4284
69.24	13.3812
69.46	8.30149
69.68	2.27362
69.9	19.2517
70.12	14.0363
70.34	8.91309
70.56	13.9028
70.78	3.9134
71	9.85231
71.22	23.6479
71.44	6.46143
71.66	11.2592
71.88	12.3985
72.1	8.46929
72.32	4.40079
72.54	9.49837
72.76	1.45716
72.98	1.92897
73.2	6.35726
73.42	9.39434
73.64	1.35123
73.86	4.31387
74.08	1.15572
74.3	13.0133
74.52	6.81972
74.74	5.11313
74.96	7.81978
75.18	4.09602
75.4	16.982
75.62	7.627
75.84	3.78446
76.06	9.12283
76.28	9.11382
76.5	14.0328
76.72	14.3014
76.94	12.3503
77.16	7.33581
77.38	13.4096
77.6	9.11127
77.82	0.220558
78.04	10.3456
78.26	11.5041
78.48	11.8548
78.7	5.90692
78.92	16.1496
79.14	5.92434
79.36	8.85795
79.58	1.74485
79.8	11.2747
80.02	8.40486
80.24	18.4475
80.46	5.32468
80.68	1.71799
80.9	14.234
81.12	0.333832
81.34	6.47092
81.56	3.51437
81.78	10.5959
82	14.343
82.22	4.81206
82.44	1.31008
82.66	11.5681
82.88	3.48731
83.1	4.47235
83.32	0.230046
83.54	11.1498
83.76	5.14512
83.98	2.99554
84.2	7.00353
84.42	13.9455
84.64	10.239
84.86	2.74493
85.08	23.2456
85.3	4.44152
85.52	3.32216
85.74	11.1901
85.96	4.14649
86.18	4.02667
86.4	3.01536
86.62	11.019
86.84	0.994164
87.06	3.6992
87.28	9.54654
87.5	4.03453
87.72	3.83657
87.94	7.85013
88.16	3.8686
88.38	5.91256
88.6	12.6515
88.82	6.65516
89.04	7.61038
89.26	5.74076
89.48	6.89954
89.7	4.95304
89.92	0.031384
