Measurement: Powder, Xray Data XY Processed
Mineral: Strontianite
Rruff sample: R050564
Ideal chemistry: SrCO_3_
Locality: Winfield Quarry, Lancaster County, Pennsylvania, USA
Source: Dave Bunk Minerals
Description: Colorless prismatic crystals
Diffraction sample description: Powder
Measured chemistry: (Sr_0.85_Ca_0.15_)CO_3_
Cell parameters: a: 5.0827(3) b: 8.3296(7) c: 5.9855(9) alpha: 90. beta: 90. gamma: 90. volume: 253.41(4) crystal system: orthorhombic
x	intensity
5	0
5.22	5.816
5.44	10.504
5.66	13.834
5.88	14.871
6.1	9.143
6.32	5.392
6.54	4.613
6.76	2.895
6.98	3.138
7.2	5.396
7.42	7.645
7.64	3.823
7.86	5.712
8.08	0.336
8.3	2.067
8.52	5.112
8.74	4.344
8.96	0.75
9.18	8.896
9.4	8.958
9.62	4.766
9.84	4.71
10.06	9.648
10.28	6.754
10.5	3.86
10.72	1.83
10.94	3.838
11.16	6.898
11.38	5.834
11.6	5.928
11.82	9.06
12.04	6.576
12.26	6.671
12.48	2.801
12.7	0.32
12.92	2.666
13.14	2.566
13.36	2.618
13.58	3.526
13.8	9.38
14.02	10.413
14.24	7.116
14.46	2.852
14.68	7.788
14.9	1.979
15.12	4.907
15.34	11.74
15.56	2.557
15.78	7.739
16	4.333
16.22	0.712
16.44	4.611
16.66	1.604
16.88	1.216
17.1	2.859
17.32	10.68
17.54	9.017
17.76	2.31
17.98	7.441
18.2	7.624
18.42	1.774
18.64	11.004
18.86	14.938
19.08	3.851
19.3	9.571
19.52	6.331
19.74	11.058
19.96	3.447
20.18	12.105
20.4	15.925
20.62	9.614
20.84	1.062
21.06	5.11
21.28	8.378
21.5	3.607
21.72	3.67
21.94	0.99
22.16	4.104
22.38	7.121
22.6	1.459
22.82	10.677
23.04	6.959
23.26	4.672
23.48	4.726
23.7	0.404
23.92	10.328
24.14	4.166
24.36	4.317
24.58	12.425
24.8	9.307
25.02	31.778
25.24	228.603
25.46	291.759
25.68	57.543
25.9	67.952
26.12	295.805
26.34	25.744
26.56	9.78
26.78	3.18
27	7.218
27.22	4.614
27.44	2.573
27.66	7.473
27.88	2.67
28.1	1.202
28.32	5.259
28.54	1.902
28.76	6.767
28.98	1.587
29.2	6.094
29.42	5.316
29.64	18.205
29.86	83.292
30.08	12.195
30.3	1.955
30.52	0.89
30.74	1.935
30.96	3.012
31.18	4.099
31.4	10.362
31.62	30.629
31.84	56.711
32.06	3.117
32.28	8.22
32.5	2.5
32.72	7.302
32.94	6.541
33.16	10.885
33.38	9.922
33.6	3.302
33.82	1.334
34.04	0.818
34.26	2.402
34.48	0.075
34.7	26.457
34.92	18.833
35.14	15.707
35.36	71.253
35.58	23.029
35.8	7.07
36.02	9.926
36.24	20.123
36.46	119.141
36.68	80.645
36.9	160.553
37.12	53.981
37.34	7.635
37.56	4.243
37.78	5.784
38	1.674
38.22	4.457
38.44	9.525
38.66	4.49
38.88	6.528
39.1	7.323
39.32	8.958
39.54	0.964
39.76	7.127
39.98	22.109
40.2	6.044
40.42	1.876
40.64	6.922
40.86	1.688
41.08	7.141
41.3	14.345
41.52	32.793
41.74	60.836
41.96	8.291
42.18	7.946
42.4	5.304
42.62	3.265
42.84	4.945
43.06	0.126
43.28	13.321
43.5	6.992
43.72	6.845
43.94	11.996
44.16	39.727
44.38	188.224
44.6	70.11
44.82	14.449
45.04	3.958
45.26	3.468
45.48	2.111
45.7	7.606
45.92	13.1
46.14	54.134
46.36	24.438
46.58	1.229
46.8	56.356
47.02	33.942
47.24	2.2
47.46	6.485
47.68	9.085
47.9	23.041
48.12	100.21
48.34	46.847
48.56	4.87
48.78	4.093
49	1.185
49.22	5.258
49.44	2.246
49.66	8.214
49.88	7.231
50.1	20.761
50.32	92.817
50.54	42.984
50.76	47.419
50.98	19.95
51.2	10.596
51.42	2.665
51.64	2.289
51.86	3.222
52.08	27.322
52.3	4.249
52.52	7.152
52.74	4.796
52.96	2.93
53.18	0.499
53.4	3.115
53.62	8.443
53.84	13.658
54.06	3.694
54.28	5.426
54.5	8.418
54.72	1.698
54.94	3.082
55.16	9.138
55.38	14.217
55.6	6.019
55.82	0.19
56.04	0.492
56.26	3.137
56.48	0.841
56.7	1.534
56.92	5.272
57.14	16.853
57.36	12.044
57.58	34.058
57.8	16.05
58.02	6.738
58.24	7.391
58.46	1.183
58.68	4.941
58.9	1.068
59.12	6.921
59.34	20.776
59.56	24.651
59.78	2.706
60	7.33
60.22	5.516
60.44	20.069
60.66	9.469
60.88	6.779
61.1	8.068
61.32	2.325
61.54	0.021
61.76	1.57
61.98	4.718
62.2	6.762
62.42	3.824
62.64	5.411
62.86	3.917
63.08	10.582
63.3	8.268
63.52	4.922
63.74	1.732
63.96	7.895
64.18	12.79
64.4	17.601
64.62	4.308
64.84	1.028
65.06	4.648
65.28	0.487
65.5	1.665
65.72	7.284
65.94	11.309
66.16	10.273
66.38	13.533
66.6	1.162
66.82	5.751
67.04	10.336
67.26	6.339
67.48	6.21
67.7	3.977
67.92	8.713
68.14	2.412
68.36	0.016
68.58	6.634
68.8	4.165
69.02	3.443
69.24	11.637
69.46	5.748
69.68	4.294
69.9	2.41
70.12	7.312
70.34	6.187
70.56	4.326
70.78	3.212
71	7.813
71.22	1.222
71.44	0.604
71.66	6.925
71.88	5.289
72.1	3.657
72.32	1.598
72.54	24.627
72.76	21.603
72.98	13.229
73.2	1.854
73.42	12.111
73.64	5.315
73.86	2.687
74.08	12.747
74.3	19.453
74.52	27.969
74.74	12.727
74.96	10.728
75.18	7
75.4	0.479
75.62	7.9
75.84	25.461
76.06	8.533
76.28	4.447
76.5	2.727
76.72	18.222
76.94	9.897
77.16	13.665
77.38	9.259
77.6	0.78
77.82	3.083
78.04	2.74
78.26	7.561
78.48	7.441
78.7	9.736
78.92	12.089
79.14	2.533
79.36	2.127
79.58	0.946
79.8	5.297
80.02	5.498
80.24	3.211
80.46	18.39
80.68	20.316
80.9	6.162
81.12	3.918
81.34	3.683
81.56	2.361
81.78	6.064
82	1.842
82.22	8.579
82.44	0.423
82.66	8.662
82.88	7.078
83.1	9.721
83.32	7.612
83.54	6.93
83.76	4.906
83.98	5.962
84.2	0.386
84.42	0.33
84.64	2.442
84.86	6.417
85.08	6.472
85.3	7.645
85.52	2.8
85.74	3.55
85.96	0.201
86.18	4.11
86.4	1.796
86.62	5.892
86.84	2.143
87.06	2.41
87.28	3.686
87.5	3.927
87.72	10.195
87.94	4.482
88.16	7.708
88.38	7.801
88.6	10.818
88.82	5.287
89.04	4.481
89.26	5.671
89.48	3.834
89.7	5.776
89.92	4.386
