Measurement: Powder, Xray Data XY Processed
Mineral: Strunzite
Rruff sample: R050619
Ideal chemistry: Mn^2+^Fe^3+^_2_(P^5+^O_4_)_2_(OH)_2_6H_2_O
Locality: Hagendorf, Germany
Source: University of Arizona Mineral Museum
Description: Pale yellow acicular crystals
Diffraction sample description: Single crystal, powder profile is calculated
Measured chemistry: (Mn^2+^_0.52_Fe^2+^_0.43_Mg_0.05_)_Σ=1_Fe^3+^_2.00_(P_1.00_O_4_)_2_(OH)_2_·6H_2_O
Cell parameters: a: 10.21(2) b: 9.83(2) c: 7.31(1) alpha: 91.00(4) beta: 98.09(4) gamma: 117.28(5) volume: 643(3) crystal system: triclinic
x	intensity
5	0
5.22	0
5.44	0
5.66	0
5.88	0
6.1	0
6.32	0
6.54	0
6.76	0
6.98	0
7.2	0
7.42	0
7.64	0
7.86	0
8.08	0
8.3	0
8.52	0
8.74	0
8.96	0
9.18	0
9.4	0
9.62	0
9.84	24.013
10.06	0.023
10.28	0.131
10.5	0.001
10.72	0
10.94	0
11.16	0
11.38	0
11.6	0
11.82	0
12.04	0
12.26	0.323
12.48	0
12.7	0
12.92	0
13.14	0
13.36	0
13.58	0
13.8	0
14.02	0
14.24	0
14.46	0.322
14.68	0
14.9	0
15.12	0.009
15.34	0.001
15.56	0.096
15.78	0
16	0
16.22	0
16.44	0
16.66	59.554
16.88	0
17.1	0.027
17.32	0.046
17.54	3.269
17.76	0
17.98	0.385
18.2	0
18.42	0
18.64	0
18.86	0
19.08	0
19.3	0
19.52	0.127
19.74	0.032
19.96	0.186
20.18	0.018
20.4	20.253
20.62	0
20.84	15.485
21.06	0
21.28	0
21.5	0.032
21.72	2.851
21.94	0.246
22.16	0.007
22.38	0
22.6	0.055
22.82	1.095
23.04	0
23.26	0
23.48	0.032
23.7	0
23.92	0
24.14	0
24.36	0
24.58	0
24.8	0.604
25.02	2.022
25.24	0
25.46	0
25.68	0
25.9	5.777
26.12	2.496
26.34	0.055
26.56	2.923
26.78	0.234
27	0
27.22	14.22
27.44	1.02
27.66	15.121
27.88	2.284
28.1	0.243
28.32	0.432
28.54	0.051
28.76	0
28.98	0.053
29.2	2.815
29.42	0
29.64	0
29.86	0.017
30.08	0.056
30.3	0.001
30.52	1.044
30.74	2.414
30.96	3.351
31.18	0.093
31.4	0.598
31.62	0.001
31.84	0
32.06	0.009
32.28	0.106
32.5	2.935
32.72	0
32.94	0.003
33.16	4.904
33.38	0.006
33.6	0.448
33.82	0.893
34.04	0.255
34.26	0.001
34.48	3.968
34.7	0.067
34.92	1.033
35.14	0.406
35.36	0
35.58	3.625
35.8	0.687
36.02	0.21
36.24	0.499
36.46	4.683
36.68	3.864
36.9	0.007
37.12	0.857
37.34	0.159
37.56	0.08
37.78	1.497
38	1.036
38.22	2.243
38.44	0.117
38.66	0.578
38.88	3.957
39.1	0.937
39.32	0.906
39.54	0.223
39.76	0.603
39.98	0.174
40.2	0.816
40.42	1.575
40.64	0.659
40.86	0.094
41.08	0.362
41.3	0.733
41.52	1.105
41.74	0.837
41.96	1.463
42.18	0.529
42.4	1.187
42.62	0.014
42.84	0.001
43.06	0
43.28	1.441
43.5	0.953
43.72	0.002
43.94	1.671
44.16	1.334
44.38	2.088
44.6	0.933
44.82	0.372
45.04	0.676
45.26	0.695
45.48	0.481
45.7	0.862
45.92	0.126
46.14	0.026
46.36	0.68
46.58	0.878
46.8	0.897
47.02	0.02
47.24	0.213
47.46	3.059
47.68	1.757
47.9	2.629
48.12	0.403
48.34	0.811
48.56	2.047
48.78	0.26
49	0.454
49.22	0.804
49.44	0.948
49.66	0.997
49.88	3.111
50.1	1.24
50.32	0.327
50.54	0.037
50.76	1.614
50.98	0.786
51.2	2.557
51.42	0.421
51.64	0.405
51.86	0
52.08	0
52.3	0.001
52.52	0.317
52.74	0.114
52.96	1.297
53.18	0.063
53.4	0.722
53.62	1.404
53.84	0.26
54.06	1.039
54.28	0.421
54.5	1.095
54.72	0.816
54.94	1.043
55.16	0.117
55.38	0.429
55.6	0.451
55.82	0.55
56.04	1.68
56.26	1.321
56.48	2.1
56.7	2.423
56.92	1.53
57.14	3.331
57.36	0.976
57.58	1.037
57.8	1.182
58.02	0.116
58.24	1.017
58.46	0.581
58.68	0.986
58.9	0.428
59.12	0.15
59.34	0.655
59.56	0.384
59.78	0.567
60	1.086
60.22	0.173
60.44	0.065
60.66	0.15
60.88	0.003
61.1	0.077
61.32	0.228
61.54	1.31
61.76	1.198
61.98	0.043
62.2	0.91
62.42	0.611
62.64	0.005
62.86	0.321
63.08	0.43
63.3	0.268
63.52	0.859
63.74	0.963
63.96	0.458
64.18	0.975
64.4	0.494
64.62	1.106
64.84	1.385
65.06	0.216
65.28	1.127
65.5	0.28
65.72	0.23
65.94	0.144
66.16	0.424
66.38	0.35
66.6	0.094
66.82	0.109
67.04	0.428
67.26	0.539
67.48	0.986
67.7	0.387
67.92	0.226
68.14	0.159
68.36	0.552
68.58	0.307
68.8	0.06
69.02	0.079
69.24	0.195
69.46	0.225
69.68	0.563
69.9	0.405
70.12	0.149
70.34	0.394
70.56	0.203
70.78	0.104
71	0.194
71.22	0.121
71.44	0.224
71.66	0.382
71.88	0.155
72.1	0.004
72.32	0.52
72.54	1.412
72.76	0.529
72.98	0.394
73.2	0.434
73.42	0.19
73.64	0.081
73.86	0.232
74.08	0.639
74.3	0.675
74.52	0.603
74.74	0.321
74.96	0.245
75.18	0.364
75.4	0.168
75.62	0.248
75.84	0.124
76.06	0.189
76.28	0.363
76.5	0.475
76.72	0.567
76.94	0.314
77.16	0.145
77.38	0.055
77.6	0.068
77.82	0.139
78.04	0.126
78.26	0.207
78.48	0.131
78.7	0.151
78.92	0.141
79.14	0.166
79.36	0.073
79.58	0.035
79.8	0.053
80.02	0.125
80.24	0.109
80.46	0.195
80.68	0.264
80.9	0.312
81.12	0.464
81.34	0.397
81.56	0.215
81.78	0.122
82	0.302
82.22	0.455
82.44	0.039
82.66	0.224
82.88	0.163
83.1	0.132
83.32	0.091
83.54	0.153
83.76	0.077
83.98	0.13
84.2	0.118
84.42	0.049
84.64	0.379
84.86	0.213
85.08	0.132
85.3	0.053
85.52	0.238
85.74	0.414
85.96	0.143
86.18	0.042
86.4	0.022
86.62	0.091
86.84	0.137
87.06	0.101
87.28	0.269
87.5	0.083
87.72	0.16
87.94	0.12
88.16	0.021
88.38	0.063
88.6	0.119
88.82	0.178
89.04	0.087
89.26	0.071
89.48	0.031
89.7	0.255
89.92	0.058
