Measurement: Powder, Xray Data XY Processed
Mineral: Struvite
Rruff sample: R050511
Ideal chemistry: (N^3-^H_4_)MgPO_4_6H_2_O
Locality: Hamburg, Germany
Source: American Museum of Natural History
Description: Colorless with a brown tint, cleavage fragment
Diffraction sample description: Powder
Measured chemistry: (NH_4_)(Mg_0.85_Fe^2+^_0.12_Mn_0.02_Ca_0.01_)_Σ=1_(P_1.00_O_4_)·6H_2_O ; NH_4_ not measured but assumed by charge balance
Cell parameters: a: 6.9464(5) b: 6.1390(9) c: 11.2142(6) alpha: 90. beta: 90. gamma: 90. volume: 478.22(6) crystal system: orthorhombic
x	intensity
5	0
5.22	15.1132
5.44	11.1529
5.66	18.4517
5.88	6.05109
6.1	9.22681
6.32	17.8094
6.54	17.1197
6.76	21.1047
6.98	5.86104
7.2	19.4282
7.42	3.62518
7.64	7.09765
7.86	33.1878
8.08	4.11588
8.3	13.6639
8.52	9.14488
8.74	5.62026
8.96	5.08088
9.18	17.0309
9.4	12.8555
9.62	3.78832
9.84	19.0369
10.06	17.8348
10.28	7.47484
10.5	17.0822
10.72	18.9702
10.94	2.33013
11.16	4.92628
11.38	2.83261
11.6	6.82131
11.82	6.11384
12.04	8.1293
12.26	24.3421
12.48	10.2647
12.7	11.496
12.92	23.6932
13.14	14.2153
13.36	6.15083
13.58	10.6828
13.8	3.42061
14.02	6.18046
14.24	12.7441
14.46	17.5251
14.68	1.30425
14.9	40.6019
15.12	89.053
15.34	12.6044
15.56	16.1187
15.78	198.455
16	23.7118
16.22	10.6155
16.44	76.5041
16.66	18.5782
16.88	8.37357
17.1	4.01076
17.32	2.53676
17.54	5.44211
17.76	7.67866
17.98	9.3148
18.2	0.474808
18.42	0.999191
18.64	16.8656
18.86	22.2016
19.08	20.1581
19.3	32.2616
19.52	7.93804
19.74	11.7472
19.96	2.87254
20.18	0.92746
20.4	16.4782
20.62	43.6461
20.84	256.546
21.06	112.687
21.28	27.0964
21.5	148.786
21.72	11.8478
21.94	9.1157
22.16	1.09995
22.38	6.83457
22.6	16.757
22.82	10.5981
23.04	5.10481
23.26	8.46652
23.48	11.6784
23.7	11.5191
23.92	1.4351
24.14	2.79119
24.36	12.7856
24.58	8.28435
24.8	4.40172
25.02	15.9399
25.24	13.394
25.46	15.2161
25.68	37.5866
25.9	3.17977
26.12	17.2664
26.34	4.86155
26.56	15.326
26.78	14.6995
27	40.8443
27.22	73.2596
27.44	28.2137
27.66	9.75053
27.88	6.80773
28.1	7.79902
28.32	4.60098
28.54	8.12882
28.76	14.5369
28.98	7.15855
29.2	16.2884
29.42	8.17391
29.64	39.2916
29.86	16.6815
30.08	27.3485
30.3	44.9397
30.52	63.2747
30.74	122.1
30.96	34.1323
31.18	5.18147
31.4	4.18989
31.62	8.91521
31.84	51.188
32.06	57.5413
32.28	1.97846
32.5	8.10504
32.72	17.6345
32.94	38.2447
33.16	67.6677
33.38	147.655
33.6	64.6498
33.82	60.6005
34.04	8.23852
34.26	4.17542
34.48	15.1092
34.7	18.985
34.92	0.773491
35.14	4.74239
35.36	8.53481
35.58	15.8379
35.8	23.5113
36.02	21.896
36.24	10.9666
36.46	8.07865
36.68	6.38741
36.9	13.5858
37.12	4.71873
37.34	1.76328
37.56	11.6416
37.78	13.957
38	16.0653
38.22	7.65231
38.44	37.2834
38.66	8.16271
38.88	1.39568
39.1	8.34595
39.32	9.41211
39.54	2.47783
39.76	11.482
39.98	5.26191
40.2	16.1325
40.42	11.1499
40.64	3.24457
40.86	7.8301
41.08	6.91089
41.3	8.83007
41.52	31.0386
41.74	7.12796
41.96	4.40362
42.18	8.28434
42.4	23.2907
42.62	12.9922
42.84	8.57107
43.06	5.84698
43.28	17.0206
43.5	10.6412
43.72	16.1284
43.94	5.39346
44.16	16.5317
44.38	10.969
44.6	16.5948
44.82	6.71444
45.04	19.539
45.26	5.54203
45.48	3.6349
45.7	6.91472
45.92	18.2452
46.14	7.65798
46.36	42.4439
46.58	24.4487
46.8	19.4332
47.02	3.67712
47.24	16.1995
47.46	4.2973
47.68	4.56225
47.9	15.2051
48.12	11.2998
48.34	1.14671
48.56	5.19956
48.78	3.76575
49	4.29096
49.22	2.64658
49.44	11.5017
49.66	5.83929
49.88	3.66264
50.1	11.2727
50.32	7.04614
50.54	20.7208
50.76	28.3754
50.98	26.9549
51.2	10.5998
51.42	5.52114
51.64	7.42194
51.86	9.49524
52.08	16.7348
52.3	5.08562
52.52	27.7365
52.74	9.8847
52.96	6.54752
53.18	14.7457
53.4	12.4908
53.62	14.9151
53.84	7.35107
54.06	0.355307
54.28	9.04856
54.5	0.494984
54.72	15.9967
54.94	1.34075
55.16	6.62453
55.38	5.8949
55.6	3.68566
55.82	19.5497
56.04	7.61998
56.26	1.63721
56.48	5.33708
56.7	9.45853
56.92	11.3879
57.14	17.2355
57.36	5.45205
57.58	19.5634
57.8	18.4596
58.02	7.61451
58.24	14.8509
58.46	11.1863
58.68	2.71783
58.9	3.0529
59.12	11.3503
59.34	23.9818
59.56	17.4191
59.78	10.7325
60	18.3661
60.22	13.3307
60.44	9.42614
60.66	7.47717
60.88	21.8161
61.1	7.51573
61.32	6.35554
61.54	9.32277
61.76	2.0017
61.98	6.80506
62.2	11.8771
62.42	21.9977
62.64	13.9691
62.86	6.99029
63.08	10.2928
63.3	10.8555
63.52	15.8683
63.74	1.83975
63.96	5.63599
64.18	10.7409
64.4	10.8238
64.62	0.64677
64.84	3.21396
65.06	2.09445
65.28	8.15054
65.5	10.9436
65.72	5.00441
65.94	6.19886
66.16	8.10856
66.38	9.82133
66.6	11.8969
66.82	7.27967
67.04	3.4506
67.26	6.37936
67.48	6.36551
67.7	12.2992
67.92	3.16106
68.14	14.4177
68.36	16.1964
68.58	2.17875
68.8	9.0166
69.02	12.0812
69.24	0.811289
69.46	12.4914
69.68	3.71053
69.9	3.87699
70.12	4.85796
70.34	8.09418
70.56	3.12224
70.78	0.368231
71	5.07643
71.22	9.31347
71.44	15.49
71.66	9.85797
71.88	5.16615
72.1	9.56483
72.32	12.3651
72.54	12.2859
72.76	15.2839
72.98	17.0221
73.2	9.93558
73.42	14.3029
73.64	5.19724
73.86	1.08804
74.08	3.81839
74.3	12.8784
74.52	3.63045
74.74	10.3228
74.96	10.2259
75.18	1.47519
75.4	0.715755
75.62	9.9985
75.84	6.17428
76.06	1.56775
76.28	10.8233
76.5	9.82629
76.72	15.8962
76.94	11.0367
77.16	10.5705
77.38	15.8157
77.6	1.11598
77.82	4.09844
78.04	1.09278
78.26	7.28211
78.48	7.55924
78.7	12.549
78.92	2.97335
79.14	5.05625
79.36	15.9897
79.58	13.3814
79.8	2.06933
80.02	5.45152
80.24	11.3752
80.46	6.57908
80.68	9.88961
80.9	6.62854
81.12	8.37417
81.34	1.51905
81.56	6.43682
81.78	9.32844
82	12.3358
82.22	14.7179
82.44	3.31037
82.66	4.42407
82.88	4.36547
83.1	13.2664
83.32	19.2054
83.54	5.25523
83.76	12.0572
83.98	17.2486
84.2	2.37404
84.42	9.33987
84.64	11.39
84.86	1.76981
85.08	1.93868
85.3	2.74638
85.52	20.9623
85.74	12.2515
85.96	9.60596
86.18	15.7444
86.4	11.9356
86.62	10.0487
86.84	8.93871
87.06	10.5333
87.28	5.3114
87.5	6.20287
87.72	1.54012
87.94	10.6121
88.16	6.49143
88.38	9.42565
88.6	9.79367
88.82	1.76442
89.04	13.1408
89.26	15.9176
89.48	7.97255
89.7	11.6938
89.92	4.50591
