Measurement: Powder, Xray Data XY Processed
Mineral: Struvite
Rruff sample: R050540
Ideal chemistry: (N^3-^H_4_)MgPO_4_6H_2_O
Locality: Hamburg, Germany
Source: University of Arizona Mineral Museum
Description: Yellowish-brown wedge-shaped crystal
Diffraction sample description: Powder
Measured chemistry: (NH_4_)(Mg_0.74_Fe^2+^_0.14_Ca_0.09_Mn_0.03_)_Σ=1_(P_1.00_O_4_)·6H_2_O ; NH_4_ not measured but estimated by charge balance.
Cell parameters: a: 6.9402(9) b: 6.1307(6) c: 11.205(1) alpha: 90. beta: 90. gamma: 90. volume: 476.77(6) crystal system: orthorhombic
x	intensity
5	0
5.22	4.92746
5.44	15.8784
5.66	7.7878
5.88	11.9001
6.1	11.9592
6.32	25.0406
6.54	10.8011
6.76	10.4261
6.98	5.32859
7.2	10.5917
7.42	16.1209
7.64	8.95478
7.86	12.0813
8.08	1.1018
8.3	15.5434
8.52	6.59485
8.74	13.0845
8.96	10.1866
9.18	7.57926
9.4	19.2208
9.62	14.1643
9.84	13.1856
10.06	11.4042
10.28	16.444
10.5	14.301
10.72	29.8229
10.94	2.70743
11.16	5.69772
11.38	11.9599
11.6	14.064
11.82	2.92757
12.04	21.1171
12.26	16.1103
12.48	9.02577
12.7	18.2004
12.92	7.09894
13.14	16.961
13.36	7.10072
13.58	6.7638
13.8	4.4856
14.02	9.84872
14.24	2.34998
14.46	34.3578
14.68	6.67729
14.9	71.3261
15.12	54.2752
15.34	0.698788
15.56	8.66664
15.78	298.646
16	20.653
16.22	16.0348
16.44	101.672
16.66	26.0129
16.88	2.76648
17.1	5.42667
17.32	24.1985
17.54	0.842981
17.76	8.29985
17.98	10.9101
18.2	5.39202
18.42	10.3917
18.64	13.9394
18.86	34.2705
19.08	14.2709
19.3	43.5175
19.52	2.33075
19.74	9.11355
19.96	8.64997
20.18	13.1985
20.4	19.452
20.62	27.2633
20.84	349.239
21.06	83.3777
21.28	35.6746
21.5	225.656
21.72	19.943
21.94	3.62552
22.16	2.60657
22.38	5.82565
22.6	7.16756
22.82	14.548
23.04	5.94395
23.26	10.4856
23.48	12.4411
23.7	16.704
23.92	7.60597
24.14	7.63268
24.36	16.0783
24.58	4.68672
24.8	2.40872
25.02	27.3065
25.24	21.3008
25.46	14.7354
25.68	57.4416
25.9	13.9898
26.12	11.5982
26.34	7.55697
26.56	18.4169
26.78	15.6462
27	44.8887
27.22	33.5575
27.44	14.0116
27.66	9.04831
27.88	24.1253
28.1	20.1083
28.32	4.02002
28.54	4.28954
28.76	6.5512
28.98	9.87608
29.2	14.9398
29.42	26.1354
29.64	22.9929
29.86	3.05598
30.08	32.1301
30.3	48.1001
30.52	61.1825
30.74	99.0556
30.96	18.0812
31.18	1.11868
31.4	4.39084
31.62	4.35776
31.84	38.3696
32.06	55.5005
32.28	13.6758
32.5	8.44288
32.72	0.163963
32.94	44.0632
33.16	50.429
33.38	144.389
33.6	68.6893
33.82	42.8956
34.04	16.3408
34.26	2.12418
34.48	1.80614
34.7	14.415
34.92	16.2835
35.14	4.93406
35.36	12.4146
35.58	20.5759
35.8	31.6091
36.02	7.33338
36.24	16.579
36.46	4.87625
36.68	11.0517
36.9	0.166264
37.12	13.2726
37.34	2.055
37.56	17.179
37.78	11.2303
38	14.6502
38.22	31.738
38.44	29.5988
38.66	11.1677
38.88	0.17647
39.1	0.222124
39.32	6.07623
39.54	10.1166
39.76	8.29476
39.98	9.18852
40.2	14.5037
40.42	5.33536
40.64	3.98585
40.86	8.88155
41.08	4.74055
41.3	5.36026
41.52	14.0889
41.74	7.87115
41.96	2.60796
42.18	9.50454
42.4	28.3262
42.62	16.4503
42.84	5.54664
43.06	12.5546
43.28	3.30608
43.5	7.18487
43.72	22.7282
43.94	19.1087
44.16	24.3996
44.38	8.99843
44.6	8.02032
44.82	12.5836
45.04	38.2077
45.26	12.9373
45.48	8.86804
45.7	11.2121
45.92	17.1995
46.14	19.5203
46.36	23.9428
46.58	16.1974
46.8	14.2437
47.02	3.88308
47.24	22.6991
47.46	25.2251
47.68	4.09944
47.9	8.79969
48.12	1.7414
48.34	3.22592
48.56	19.9536
48.78	11.7879
49	6.28458
49.22	2.61933
49.44	12.0614
49.66	2.28162
49.88	9.73573
50.1	5.17134
50.32	6.8337
50.54	23.7141
50.76	32.2733
50.98	26.0407
51.2	22.497
51.42	13.5465
51.64	11.6486
51.86	25.9463
52.08	12.5354
52.3	3.85353
52.52	20.2793
52.74	24.1258
52.96	9.15375
53.18	15.9541
53.4	10.5729
53.62	12.9568
53.84	20.8402
54.06	2.37575
54.28	0.150478
54.5	7.16264
54.72	5.38528
54.94	1.92608
55.16	8.8993
55.38	20.8549
55.6	19.9442
55.82	13.5334
56.04	12.3299
56.26	7.05932
56.48	9.9586
56.7	1.92932
56.92	9.88354
57.14	14.1587
57.36	15.7978
57.58	13.831
57.8	14.8735
58.02	13.8419
58.24	14.4909
58.46	5.50689
58.68	1.30388
58.9	16.8024
59.12	9.93117
59.34	17.2624
59.56	9.13239
59.78	0.0284
60	62.8643
60.22	8.04764
60.44	3.60314
60.66	25.9989
60.88	8.08003
61.1	6.05393
61.32	11.161
61.54	23.2503
61.76	17.1574
61.98	9.10663
62.2	12.5651
62.42	8.80854
62.64	12.0248
62.86	19.9456
63.08	7.88185
63.3	23.0382
63.52	2.15411
63.74	15.2566
63.96	8.34683
64.18	3.96744
64.4	8.93763
64.62	3.65257
64.84	4.90759
65.06	3.89083
65.28	13.1571
65.5	10.1569
65.72	9.09973
65.94	6.01196
66.16	0.875479
66.38	3.88131
66.6	5.52039
66.82	12.4011
67.04	7.11606
67.26	11.0208
67.48	1.9489
67.7	7.51037
67.92	23.3428
68.14	16.6909
68.36	5.19896
68.58	13.3944
68.8	0.142479
69.02	16.3312
69.24	1.33739
69.46	5.55981
69.68	11.7858
69.9	17.9511
70.12	15.3252
70.34	1.57002
70.56	5.2054
70.78	1.19331
71	6.17764
71.22	5.65076
71.44	1.10202
71.66	9.36552
71.88	3.02671
72.1	14.4132
72.32	0.471235
72.54	3.39311
72.76	19.4411
72.98	5.02611
73.2	5.33131
73.42	7.27029
73.64	12.8132
73.86	4.34312
74.08	4.16221
74.3	4.73826
74.52	11.2486
74.74	16.0352
74.96	9.89223
75.18	8.96508
75.4	2.2889
75.62	2.34579
75.84	5.85416
76.06	5.0825
76.28	3.38274
76.5	11.668
76.72	10.2942
76.94	6.74267
77.16	6.14512
77.38	5.44882
77.6	0.705921
77.82	0.671301
78.04	3.08351
78.26	10.9096
78.48	11.2008
78.7	5.29381
78.92	7.31408
79.14	5.01917
79.36	3.35363
79.58	1.2327
79.8	1.17924
80.02	10.8001
80.24	3.64556
80.46	4.85837
80.68	14.7265
80.9	6.39977
81.12	13.0683
81.34	5.03526
81.56	8.85569
81.78	3.82056
82	15.0822
82.22	1.47262
82.44	13.8158
82.66	9.18539
82.88	5.34623
83.1	11.6206
83.32	12.931
83.54	6.68988
83.76	4.07847
83.98	10.1135
84.2	13.0969
84.42	13.4091
84.64	11.2294
84.86	13.9906
85.08	4.85171
85.3	11.8545
85.52	6.79178
85.74	11.6563
85.96	11.1688
86.18	11.9031
86.4	2.23191
86.62	3.23766
86.84	11.8964
87.06	11.1351
87.28	4.17467
87.5	0.810844
87.72	16.6757
87.94	10.1333
88.16	5.62836
88.38	3.84437
88.6	4.05741
88.82	3.85818
89.04	19.3775
89.26	8.75752
89.48	17.2542
89.7	11.3044
89.92	6.26312
