Measurement: Powder, Xray Data XY Processed
Mineral: Sulphur
Rruff sample: R040135
Ideal chemistry: S
Locality: Sicily, Italy
Source: University of Arizona Mineral Museum
Description: Yellow fragments
Diffraction sample description: Powder
Measured chemistry: S_1.00_
Cell parameters: a: 10.4668(4) b: 12.8711(5) c: 24.485(2) alpha: 90. beta: 90. gamma: 90. volume: 3298.6(2) crystal system: orthorhombic
x	intensity
5	0
5.22	21.168
5.44	9.68863
5.66	20.4013
5.88	8.44492
6.1	16.8698
6.32	14.0331
6.54	3.07484
6.76	5.43943
6.98	8.34172
7.2	6.51477
7.42	1.46997
7.64	6.40882
7.86	14.2933
8.08	5.11535
8.3	8.52302
8.52	8.88019
8.74	9.08265
8.96	1.50938
9.18	5.45537
9.4	1.61451
9.62	3.45108
9.84	4.64688
10.06	11.6679
10.28	0.48132
10.5	5.32987
10.72	3.10395
10.94	9.08304
11.16	5.19583
11.38	8.05965
11.6	16.1745
11.82	10.3109
12.04	5.15191
12.26	0.283808
12.48	8.25464
12.7	3.36041
12.92	3.57876
13.14	2.68028
13.36	0.871757
13.58	4.92853
13.8	4.25512
14.02	13.2604
14.24	1.42426
14.46	2.4685
14.68	1.34385
14.9	5.56477
15.12	2.57451
15.34	9.88811
15.56	28.9571
15.78	8.06846
16	6.06471
16.22	8.08509
16.44	1.99442
16.66	8.17168
16.88	3.35696
17.1	3.45849
17.32	9.41452
17.54	2.57663
17.76	1.48923
17.98	4.81912
18.2	2.79277
18.42	9.92769
18.64	4.90264
18.86	6.95237
19.08	0.978289
19.3	2.11834
19.52	2.05335
19.74	1.97305
19.96	0.193345
20.18	4.56454
20.4	0.545871
20.62	4.36403
20.84	10.1113
21.06	1.1035
21.28	6.82158
21.5	1.33711
21.72	4.957
21.94	76.74
22.16	0.417871
22.38	1.55912
22.6	5.23018
22.82	24.3278
23.04	150.337
23.26	32.6369
23.48	14.6761
23.7	8.68885
23.92	0.230608
24.14	6.99201
24.36	1.36302
24.58	3.53574
24.8	1.37354
25.02	48.3122
25.24	4.01567
25.46	2.6538
25.68	8.32295
25.9	189.847
26.12	6.88868
26.34	4.18692
26.56	0.170758
26.78	101.361
27	0.096338
27.22	2.18416
27.44	9.0525
27.66	34.0311
27.88	53.0715
28.1	10.3043
28.32	0.438482
28.54	10.7573
28.76	124.823
28.98	178.123
29.2	0.667408
29.42	7.93523
29.64	0.069783
29.86	1.38768
30.08	1.58213
30.3	6.73412
30.52	6.74451
30.74	0.293399
30.96	6.76335
31.18	7.56046
31.4	58.8137
31.62	3.86114
31.84	0.006181
32.06	13.4292
32.28	3.33412
32.5	5.66348
32.72	2.94035
32.94	4.99341
33.16	8.00108
33.38	9.01431
33.6	8.18519
33.82	8.91714
34.04	14.6658
34.26	49.0108
34.48	9.66182
34.7	1.54457
34.92	21.1845
35.14	2.85003
35.36	1.83008
35.58	5.99954
35.8	12.6944
36.02	35.3983
36.24	21.274
36.46	4.11815
36.68	5.4222
36.9	4.31319
37.12	40.3764
37.34	6.66139
37.56	4.90928
37.78	11.7989
38	33.8573
38.22	6.04755
38.44	2.24757
38.66	0.522724
38.88	2.98286
39.1	13.1239
39.32	12.3962
39.54	10.4127
39.76	6.24419
39.98	0.819387
40.2	3.10685
40.42	3.15457
40.64	11.3154
40.86	0.32986
41.08	3.10794
41.3	1.69467
41.52	3.47859
41.74	2.40376
41.96	3.30381
42.18	13.3001
42.4	10.1472
42.62	10.4402
42.84	39.4502
43.06	5.44569
43.28	11.3665
43.5	1.36027
43.72	6.42103
43.94	6.35412
44.16	4.25769
44.38	8.44614
44.6	2.23895
44.82	2.24001
45.04	4.77417
45.26	10.5064
45.48	6.39751
45.7	14.4036
45.92	4.277
46.14	5.07437
46.36	15.2175
46.58	8.20135
46.8	4.8965
47.02	0.943998
47.24	5.84556
47.46	1.22988
47.68	13.2188
47.9	29.0305
48.12	11.9342
48.34	6.0996
48.56	5.15013
48.78	0.966118
49	4.95981
49.22	1.32526
49.44	6.49976
49.66	8.42715
49.88	21.2267
50.1	16.2196
50.32	5.12872
50.54	0.104702
50.76	3.12348
50.98	0.927318
51.2	29.0188
51.42	23.5708
51.64	10.2625
51.86	1.06151
52.08	33.9213
52.3	3.73961
52.52	3.97071
52.74	0.134344
52.96	8.00716
53.18	22.9486
53.4	8.96581
53.62	3.67384
53.84	6.11723
54.06	16.0506
54.28	11.0142
54.5	2.96493
54.72	3.85831
54.94	4.63396
55.16	10.6945
55.38	6.63524
55.6	4.45028
55.82	13.2283
56.04	7.52778
56.26	1.38015
56.48	4.32484
56.7	29.3614
56.92	11.4504
57.14	7.12662
57.36	18.4816
57.58	14.3794
57.8	13.0123
58.02	5.31847
58.24	5.72817
58.46	5.94803
58.68	6.14772
58.9	6.31931
59.12	19.426
59.34	3.50618
59.56	3.09889
59.78	7.27842
60	7.955
60.22	8.02032
60.44	9.06705
60.66	10.9081
60.88	2.12011
61.1	0.070029
61.32	2.03268
61.54	1.96043
61.76	4.87855
61.98	9.69315
62.2	4.2851
62.42	6.24472
62.64	2.13244
62.86	8.11164
63.08	7.43865
63.3	0.613328
63.52	4.50187
63.74	7.52872
63.96	1.62129
64.18	0.833262
64.4	0.896337
64.62	3.90974
64.84	14.8892
65.06	12.1127
65.28	0.163706
65.5	8.006
65.72	10.1975
65.94	6.59504
66.16	9.75669
66.38	1.94181
66.6	2.1056
66.82	1.38515
67.04	6.53525
67.26	5.58769
67.48	10.6819
67.7	5.73569
67.92	0.681576
68.14	5.39856
68.36	4.10208
68.58	8.13014
68.8	1.16718
69.02	7.23561
69.24	13.192
69.46	9.31391
69.68	6.39281
69.9	6.23334
70.12	1.74431
70.34	10.2932
70.56	4.25458
70.78	0.229939
71	6.09312
71.22	5.90981
71.44	10.6777
71.66	6.49348
71.88	12.3396
72.1	1.3812
72.32	6.43137
72.54	2.48424
72.76	17.4476
72.98	6.6582
73.2	7.76113
73.42	9.9985
73.64	7.19771
73.86	6.36835
74.08	1.62346
74.3	2.99342
74.52	3.35467
74.74	0.520876
74.96	0.396681
75.18	7.79206
75.4	3.91048
75.62	1.97488
75.84	5.01077
76.06	6.98701
76.28	5.90372
76.5	0.567182
76.72	2.48727
76.94	3.16186
77.16	0.150957
77.38	1.12359
77.6	2.97849
77.82	7.07149
78.04	2.13543
78.26	3.10681
78.48	7.25605
78.7	3.3074
78.92	0.410562
79.14	2.46442
79.36	0.460084
79.58	2.4003
79.8	5.75426
80.02	5.89818
80.24	4.7962
80.46	4.76726
80.68	1.68972
80.9	4.7592
81.12	1.82225
81.34	8.88146
81.56	6.90584
81.78	2.30065
82	8.39493
82.22	2.1892
82.44	1.12123
82.66	10.1403
82.88	3.15042
83.1	1.132
83.32	4.2378
83.54	3.15125
83.76	5.21333
83.98	7.29189
84.2	5.84324
84.42	10.8141
84.64	3.76153
84.86	3.70427
85.08	2.6963
85.3	0.628368
85.52	5.76088
85.74	6.59856
85.96	0.803453
86.18	7.03848
86.4	1.04016
86.62	6.09692
86.84	3.2494
87.06	4.30163
87.28	3.38139
87.5	9.4067
87.72	11.4354
87.94	7.32596
88.16	1.59268
88.38	0.31855
88.6	9.19511
88.82	0.136215
89.04	2.01998
89.26	0.987403
89.48	4.1827
89.7	2.58345
89.92	4.56266
