Measurement: Powder, Xray Data XY Processed
Mineral: Sulphur
Rruff sample: R050006
Ideal chemistry: S
Locality: San Felipe, Mexicali, Baja California Norte, Mexico
Source: Eugene Schlepp
Description: Yellow single crystal
Diffraction sample description: Powder
Measured chemistry: S_1.00_
Cell parameters: a: 10.4677(8) b: 12.864(2) c: 24.481(4) alpha: 90. beta: 90. gamma: 90. volume: 3296.7(3) crystal system: orthorhombic
x	intensity
5	0
5.22	1.82
5.44	8.232
5.66	4.607
5.88	10.236
6.1	3.188
6.32	7.149
6.54	12.032
6.76	6.706
6.98	8.359
7.2	12.014
7.42	0.589
7.64	4.105
7.86	0.669
8.08	7.142
8.3	0.45
8.52	7.534
8.74	1.775
8.96	1.043
9.18	8.092
9.4	3.948
9.62	4.952
9.84	6.038
10.06	1.948
10.28	0.927
10.5	5.771
10.72	4.669
10.94	2.444
11.16	2.132
11.38	0.142
11.6	17.182
11.82	2.339
12.04	2.432
12.26	4.552
12.48	4.052
12.7	4.149
12.92	3.325
13.14	5.59
13.36	9.634
13.58	5.767
13.8	7.983
14.02	3.061
14.24	4.984
14.46	3.999
14.68	7.932
14.9	6.66
15.12	6.77
15.34	7.647
15.56	27.787
15.78	3.985
16	2.094
16.22	4.162
16.44	5.278
16.66	0.422
16.88	8.623
17.1	1.807
17.32	0.107
17.54	9.063
17.76	0.722
17.98	5.268
18.2	6.243
18.42	1.209
18.64	3.21
18.86	0.158
19.08	0.219
19.3	9.23
19.52	4.306
19.74	3.117
19.96	4.178
20.18	2.038
20.4	3.142
20.62	0.075
20.84	1.921
21.06	0.225
21.28	6.65
21.5	3.397
21.72	5.147
21.94	12.835
22.16	3.616
22.38	4.399
22.6	1.363
22.82	31.476
23.04	30.528
23.26	157.687
23.48	9.856
23.7	5.218
23.92	0.64
24.14	8.463
24.36	2.636
24.58	3.827
24.8	4.766
25.02	18.609
25.24	6.137
25.46	0.962
25.68	0.322
25.9	45.328
26.12	5.157
26.34	8.38
26.56	2.351
26.78	41.144
27	17.921
27.22	2.952
27.44	9.234
27.66	4.251
27.88	96.257
28.1	2.361
28.32	2.514
28.54	0.712
28.76	58.489
28.98	18.72
29.2	15.012
29.42	4.346
29.64	1.531
29.86	2.527
30.08	0.74
30.3	0.918
30.52	0.937
30.74	2.061
30.96	0.741
31.18	1.514
31.4	6.437
31.62	17.443
31.84	6.348
32.06	0.447
32.28	0.51
32.5	3.504
32.72	2.572
32.94	0.706
33.16	4.557
33.38	6.486
33.6	5.52
33.82	4.556
34.04	0.523
34.26	33.576
34.48	4.525
34.7	2.572
34.92	6.511
35.14	7.44
35.36	7.273
35.58	0.305
35.8	5.571
36.02	21.211
36.24	9.101
36.46	1.925
36.68	1.211
36.9	0.587
37.12	16.442
37.34	6.403
37.56	9.455
37.78	1.515
38	12.146
38.22	8.334
38.44	0.579
38.66	0.512
38.88	0.722
39.1	2.838
39.32	2.103
39.54	8.265
39.76	2.339
39.98	0.58
40.2	2.546
40.42	3.852
40.64	6.735
40.86	10.812
41.08	4.786
41.3	4.66
41.52	3.556
41.74	4.331
41.96	9.196
42.18	7.216
42.4	5.24
42.62	6.055
42.84	30.798
43.06	8.765
43.28	6.824
43.5	3.92
43.72	6.954
43.94	8.965
44.16	2.964
44.38	1.044
44.6	3.8
44.82	8.731
45.04	5.857
45.26	4.784
45.48	0.667
45.7	8.505
45.92	1.614
46.14	2.647
46.36	2.602
46.58	5.54
46.8	6.502
47.02	3.488
47.24	5.353
47.46	1.102
47.68	2.055
47.9	29.21
48.12	2.292
48.34	3.162
48.56	5.062
48.78	6.024
49	2.028
49.22	4.987
49.44	0.03
49.66	3.994
49.88	12.18
50.1	12.079
50.32	3.754
50.54	6.578
50.76	0.369
50.98	2.499
51.2	8.404
51.42	17.428
51.64	2.649
51.86	8.692
52.08	6.576
52.3	8.306
52.52	1.448
52.74	1.417
52.96	4.608
53.18	23.544
53.4	6.697
53.62	6.988
53.84	0.842
54.06	18.889
54.28	5.884
54.5	1.051
54.72	2.96
54.94	6.859
55.16	3.813
55.38	10.401
55.6	4.272
55.82	6.147
56.04	27.918
56.26	0.736
56.48	3.76
56.7	8.758
56.92	12.79
57.14	7.118
57.36	11.532
57.58	13.676
57.8	8.412
58.02	10.635
58.24	7.796
58.46	5.925
58.68	4.118
58.9	2.159
59.12	4.196
59.34	4.298
59.56	2.043
59.78	2.644
60	3.738
60.22	7.606
60.44	7.623
60.66	9.676
60.88	6.677
61.1	2.582
61.32	6.683
61.54	2.016
61.76	4.055
61.98	3.132
62.2	4.144
62.42	4.254
62.64	6.314
62.86	6.336
63.08	3.467
63.3	4.67
63.52	0.762
63.74	4.702
63.96	6.422
64.18	1.396
64.4	1.418
64.62	0.344
64.84	8.264
65.06	7.168
65.28	4.119
65.5	10.257
65.72	7.233
65.94	10.247
66.16	4.31
66.38	2.382
66.6	3.445
66.82	3.6
67.04	0.302
67.26	3.82
67.48	3.833
67.7	5.754
67.92	2.568
68.14	0.467
68.36	0.497
68.58	2.49
68.8	1.659
69.02	8.695
69.24	10.532
69.46	18.664
69.68	5.752
69.9	1.783
70.12	1.247
70.34	0.866
70.56	0.954
70.78	0.965
71	2.106
71.22	5.972
71.44	0.043
71.66	0.934
71.88	9.766
72.1	4.654
72.32	8.627
72.54	5.681
72.76	3.668
72.98	7.557
73.2	7.812
73.42	2.834
73.64	5.927
73.86	7.123
74.08	4.242
74.3	5.411
74.52	1.526
74.74	4.618
74.96	3.764
75.18	3.865
75.4	7.967
75.62	0.145
75.84	3.838
76.06	5.778
76.28	3.571
76.5	1.516
76.72	4.403
76.94	1.341
77.16	1.344
77.38	3.358
77.6	3.293
77.82	6.329
78.04	0.434
78.26	2.472
78.48	1.542
78.7	1.694
78.92	1.754
79.14	7.917
79.36	2.944
79.58	7.058
79.8	4.988
80.02	2.889
80.24	3.927
80.46	8.827
80.68	7.823
80.9	2.825
81.12	5.792
81.34	4.766
81.56	4.657
81.78	1.645
82	0.399
82.22	1.516
82.44	2.424
82.66	8.388
82.88	5.479
83.1	1.447
83.32	2.409
83.54	2.383
83.76	3.428
83.98	0.48
84.2	1.481
84.42	5.489
84.64	2.474
84.86	2.513
85.08	2.458
85.3	0.299
85.52	6.175
85.74	3.199
85.96	7.234
86.18	2.183
86.4	1.183
86.62	0.146
86.84	2.108
87.06	0.132
87.28	0.146
87.5	1.257
87.72	4.291
87.94	0.665
88.16	1.371
88.38	0.326
88.6	1.335
88.82	4.35
89.04	3.406
89.26	2.405
89.48	0.47
89.7	0.545
89.92	2.975
