Measurement: Powder, Xray Data XY Processed
Mineral: Sursassite
Rruff sample: R060336
Ideal chemistry: Mn^2+^_2_Al_3_(SiO_4_)(Si_2_O_7_)(OH)_3_
Locality: Strategic Manganese mine, near Woodstock, New Brunswick, Canada
Source: Michael Scott
Description: Reddish-brown fibrous or platy crystals in parallel or radiating groups
Diffraction sample description: Single crystal, powder profile is calculated
Cell parameters: a: 8.68(1) b: 5.775(8) c: 9.75(1) alpha: 90 beta: 109.99(3) gamma: 90 volume: 462.2(9) crystal system: monoclinic
x	intensity
5	0
5.22	0
5.44	0
5.66	0
5.88	0
6.1	0
6.32	0
6.54	0
6.76	0
6.98	0
7.2	0
7.42	0
7.64	0
7.86	0
8.08	0
8.3	0
8.52	0
8.74	0
8.96	0
9.18	0
9.4	0
9.62	7.988
9.84	0
10.06	0
10.28	0
10.5	0
10.72	0
10.94	0.01
11.16	0
11.38	0
11.6	0
11.82	1.334
12.04	0
12.26	0
12.48	0
12.7	0
12.92	0
13.14	0
13.36	0
13.58	0
13.8	0
14.02	0
14.24	0
14.46	0
14.68	0
14.9	0
15.12	0
15.34	0
15.56	0
15.78	0
16	0
16.22	0
16.44	0
16.66	0
16.88	0.46
17.1	0
17.32	0
17.54	0
17.76	0
17.98	0
18.2	0.002
18.42	0
18.64	0.682
18.86	23.841
19.08	0
19.3	3.589
19.52	0.158
19.74	0
19.96	0
20.18	0
20.4	0
20.62	1.926
20.84	0
21.06	0
21.28	0
21.5	0
21.72	0.265
21.94	0
22.16	0
22.38	0
22.6	0
22.82	1.925
23.04	0
23.26	0
23.48	0
23.7	63.182
23.92	0
24.14	0.001
24.36	0.083
24.58	0
24.8	0.529
25.02	0
25.24	0.03
25.46	0.031
25.68	0.433
25.9	0.141
26.12	0
26.34	0
26.56	0
26.78	21.006
27	0
27.22	0
27.44	1.221
27.66	0
27.88	0
28.1	0
28.32	3.237
28.54	0.008
28.76	0
28.98	0
29.2	3.721
29.42	0
29.64	0
29.86	1.199
30.08	1.079
30.3	0
30.52	0
30.74	0
30.96	36.871
31.18	0.005
31.4	0
31.62	59.701
31.84	0
32.06	5.105
32.28	0
32.5	6.158
32.72	0
32.94	11.145
33.16	1.378
33.38	0.253
33.6	0
33.82	2.703
34.04	41.202
34.26	0.001
34.48	0
34.7	41.705
34.92	0
35.14	0
35.36	0.667
35.58	0.579
35.8	0.295
36.02	0.821
36.24	0
36.46	1.92
36.68	1.114
36.9	6.267
37.12	0.001
37.34	0.182
37.56	31.118
37.78	0.044
38	1.51
38.22	18.96
38.44	0
38.66	0
38.88	0
39.1	0
39.32	23.229
39.54	0.613
39.76	0
39.98	0
40.2	1.741
40.42	1.818
40.64	0
40.86	1.038
41.08	0.006
41.3	0.901
41.52	1.613
41.74	0.151
41.96	19.348
42.18	0.003
42.4	0.01
42.62	26.263
42.84	0.001
43.06	15.648
43.28	0.179
43.5	0.319
43.72	9.492
43.94	0
44.16	2.144
44.38	8.154
44.6	0.167
44.82	0.714
45.04	1.006
45.26	0.007
45.48	1.187
45.7	0.159
45.92	0.08
46.14	0
46.36	0
46.58	0.46
46.8	3.065
47.02	0.335
47.24	0.55
47.46	0.362
47.68	0
47.9	0
48.12	0.108
48.34	0.007
48.56	0.063
48.78	1.835
49	1.478
49.22	0
49.44	0.099
49.66	9.932
49.88	0.797
50.1	0
50.32	0.002
50.54	0.266
50.76	1.275
50.98	10.305
51.2	4.695
51.42	0.218
51.64	0.337
51.86	0.004
52.08	1.244
52.3	0.348
52.52	0.259
52.74	0.06
52.96	2.452
53.18	0.235
53.4	0.117
53.62	0.4
53.84	0.444
54.06	0.091
54.28	0.011
54.5	0.043
54.72	2.401
54.94	1.159
55.16	2.298
55.38	2.444
55.6	4.577
55.82	0
56.04	7.872
56.26	0.526
56.48	0.182
56.7	1.004
56.92	0.507
57.14	2.293
57.36	3.976
57.58	6.257
57.8	1.242
58.02	0
58.24	0.375
58.46	0.149
58.68	68.363
58.9	9.111
59.12	0.061
59.34	0.395
59.56	0.468
59.78	1.11
60	1.658
60.22	0
60.44	0.003
60.66	4.71
60.88	1.123
61.1	1.557
61.32	0.466
61.54	0.152
61.76	13.388
61.98	2.792
62.2	7.125
62.42	2.028
62.64	0.005
62.86	0.778
63.08	0.692
63.3	1.299
63.52	0.032
63.74	0
63.96	0
64.18	0.683
64.4	4.168
64.62	41.752
64.84	6.08
65.06	0.369
65.28	0.117
65.5	0.047
65.72	0.184
65.94	12.615
66.16	4.088
66.38	0.034
66.6	0.352
66.82	0.75
67.04	1.029
67.26	0.187
67.48	0.005
67.7	0.003
67.92	0.125
68.14	0.356
68.36	0.036
68.58	0.213
68.8	0.112
69.02	1.005
69.24	0.591
69.46	0.129
69.68	0.812
69.9	1.021
70.12	0.483
70.34	0.645
70.56	0.125
70.78	0.878
71	0.464
71.22	0.436
71.44	0.096
71.66	7.273
71.88	3.148
72.1	2.589
72.32	1.286
72.54	0.028
72.76	0.788
72.98	0.271
73.2	4.127
73.42	2.138
73.64	0.035
73.86	0.577
74.08	4.373
74.3	2.779
74.52	9.387
74.74	4.753
74.96	5.965
75.18	3.116
75.4	0.44
75.62	0.39
75.84	0.478
76.06	0.697
76.28	0.228
76.5	0.158
76.72	0.376
76.94	0.341
77.16	0.277
77.38	0.134
77.6	1.022
77.82	0.661
78.04	0.41
78.26	0.53
78.48	0.357
78.7	0.437
78.92	0.437
79.14	0.114
79.36	0.341
79.58	0.16
79.8	0.434
80.02	0.725
80.24	0.434
80.46	5.016
80.68	2.942
80.9	0.928
81.12	0.212
81.34	0.025
81.56	0.27
81.78	0.093
82	0.036
82.22	0.751
82.44	0.409
82.66	0.003
82.88	0.004
83.1	0.325
83.32	1.037
83.54	0.564
83.76	0.178
83.98	0.049
84.2	0.066
84.42	1.558
84.64	1.207
84.86	0.381
85.08	0.453
85.3	0.17
85.52	0.067
85.74	0.172
85.96	0.188
86.18	0.204
86.4	0.17
86.62	0.078
86.84	0.672
87.06	0.07
87.28	0.337
87.5	0.215
87.72	0.162
87.94	0.498
88.16	0.123
88.38	0.024
88.6	0.031
88.82	0.189
89.04	0.154
89.26	0.004
89.48	2.43
89.7	0.893
89.92	0.968
