Measurement: Powder, Xray Data XY Processed
Mineral: Sylvite
Rruff sample: R050166
Ideal chemistry: KCl
Locality: Salton Sea, Imperial County, California, USA
Source: Marcus Origlieri
Description: Pale blue octahedral crystals
Diffraction sample description: Powder
Cell parameters: a: 6.29218(6) b: 6.29218(6) c: 6.29218(6) alpha: 90. beta: 90. gamma: 90. volume: 249.117(7) crystal system: cubic
x	intensity
5	0
5.22	12.5376
5.44	8.27617
5.66	12.7434
5.88	12.3737
6.1	9.46183
6.32	24.4549
6.54	21.3209
6.76	14.9518
6.98	8.88443
7.2	1.71298
7.42	14.29
7.64	0.162149
7.86	6.49138
8.08	5.95298
8.3	7.96819
8.52	7.17826
8.74	7.63158
8.96	12.1313
9.18	9.22902
9.4	8.06791
9.62	4.20529
9.84	3.35442
10.06	0.451535
10.28	3.66544
10.5	6.76725
10.72	9.8617
10.94	3.60179
11.16	5.63613
11.38	7.59213
11.6	2.62821
11.82	4.70862
12.04	2.00725
12.26	14.2202
12.48	6.3532
12.7	8.26476
12.92	7.41789
13.14	8.77279
13.36	2.90069
13.58	9.07682
13.8	7.02362
14.02	6.29464
14.24	7.38758
14.46	10.3295
14.68	0.417221
14.9	5.70635
15.12	3.73761
15.34	1.90586
15.56	4.76924
15.78	3.96184
16	8.01428
16.22	7.93728
16.44	4.87098
16.66	9.88424
16.88	2.75392
17.1	4.76601
17.32	3.59141
17.54	0.582809
17.76	2.51891
17.98	2.68023
18.2	1.67981
18.42	2.62609
18.64	0.855406
18.86	0.054184
19.08	1.02036
19.3	11.1272
19.52	4.40312
19.74	7.57043
19.96	6.74645
20.18	0.794013
20.4	5.65167
20.62	2.87865
20.84	6.8952
21.06	6.93656
21.28	5.97182
21.5	3.06409
21.72	8.05765
21.94	5.98564
22.16	10.0564
22.38	7.06091
22.6	7.05358
22.82	9.06074
23.04	1.9615
23.26	5.9254
23.48	0.728173
23.7	7.77121
23.92	8.8248
24.14	6.67664
24.36	4.58687
24.58	6.36351
24.8	0.337876
25.02	4.30745
25.24	4.30659
25.46	3.18815
25.68	8.35743
25.9	3.76468
26.12	3.75382
26.34	4.44594
26.56	1.23246
26.78	2.99046
27	0.638047
27.22	0.200549
27.44	12.7381
27.66	8.29653
27.88	10.9717
28.1	15.4606
28.32	298.905
28.54	82.6143
28.76	6.80508
28.98	1.95338
29.2	6.22095
29.42	1.80972
29.64	8.16894
29.86	3.74921
30.08	4.07807
30.3	15.4016
30.52	3.69654
30.74	4.79298
30.96	7.9518
31.18	2.98412
31.4	3.01941
31.62	11.3613
31.84	0.366622
32.06	3.45916
32.28	2.42008
32.5	8.47016
32.72	0.654173
32.94	2.86283
33.16	4.9601
33.38	0.931227
33.6	6.24221
33.82	1.26472
34.04	4.17405
34.26	6.23627
34.48	1.45281
34.7	3.44859
34.92	0.487899
35.14	0.62912
35.36	0.690591
35.58	6.2947
35.8	7.2587
36.02	1.11628
36.24	0.161513
36.46	7.13008
36.68	8.10738
36.9	4.07761
37.12	0.020131
37.34	0.624485
37.56	2.72025
37.78	2.78371
38	0.801191
38.22	6.7073
38.44	4.58016
38.66	3.31338
38.88	0.008
39.1	1.66246
39.32	7.23444
39.54	4.95956
39.76	2.28499
39.98	7.82549
40.2	7.62632
40.42	47.8327
40.64	352.957
40.86	20.0596
41.08	5.13175
41.3	9.35035
41.52	1.60056
41.74	5.81782
41.96	2.98342
42.18	3.41319
42.4	6.59978
42.62	2.63854
42.84	6.63605
43.06	2.59626
43.28	4.80468
43.5	5.84001
43.72	3.98418
43.94	2.99836
44.16	5.2139
44.38	1.21913
44.6	1.22998
44.82	4.39605
45.04	6.47401
45.26	8.54399
45.48	10.6137
45.7	3.50754
45.92	0.424634
46.14	0.518117
46.36	5.43616
46.58	5.16546
46.8	1.14979
47.02	1.97436
47.24	5.7067
47.46	1.58627
47.68	1.31546
47.9	2.24842
48.12	4.10319
48.34	2.88241
48.56	3.66669
48.78	2.58383
49	0.484855
49.22	0.350547
49.44	3.27367
49.66	10.2994
49.88	0.460507
50.1	17.6913
50.32	94.6886
50.54	10.9752
50.76	4.19846
50.98	3.47356
51.2	4.79067
51.42	6.22681
51.64	1.40412
51.86	2.88415
52.08	2.33462
52.3	2.29252
52.52	6.34461
52.74	6.45311
52.96	12.4758
53.18	6.51831
53.4	0.537616
53.62	1.51747
53.84	3.47333
54.06	2.40261
54.28	5.30188
54.5	4.18817
54.72	1.18513
54.94	2.1991
55.16	1.24107
55.38	4.31589
55.6	1.38877
55.82	4.55277
56.04	4.64645
56.26	1.58055
56.48	2.64564
56.7	4.8044
56.92	4.68968
57.14	0.660472
57.36	0.461743
57.58	1.38194
57.8	1.15017
58.02	1.99962
58.24	5.68366
58.46	5.44322
58.68	70.3179
58.9	14.2222
59.12	10.0122
59.34	7.10745
59.56	5.17206
59.78	3.22117
60	0.296855
60.22	4.39237
60.44	0.478363
60.66	2.75026
60.88	3.86521
61.1	5.96368
61.32	6.96027
61.54	0.040106
61.76	3.10734
61.98	2.10707
62.2	7.22476
62.42	4.29697
62.64	3.37485
62.86	2.32937
63.08	7.26832
63.3	3.26005
63.52	5.21217
63.74	1.41719
63.96	4.3498
64.18	5.13171
64.4	2.99483
64.62	8.7867
64.84	0.594516
65.06	3.33751
65.28	1.11954
65.5	1.85962
65.72	1.37569
65.94	7.51487
66.16	10.2592
66.38	98.1448
66.6	70.1599
66.82	11.2958
67.04	5.33003
67.26	5.43441
67.48	2.62685
67.7	2.82307
67.92	0.038228
68.14	0.442022
68.36	2.69858
68.58	5.75365
68.8	5.01512
69.02	4.17507
69.24	3.15935
69.46	6.24594
69.68	1.26215
69.9	2.23311
70.12	0.190706
70.34	2.17298
70.56	0.812322
70.78	2.74998
71	4.79315
71.22	0.855538
71.44	1.72263
71.66	4.80666
71.88	3.73378
72.1	0.750511
72.32	2.6931
72.54	1.63461
72.76	3.55156
72.98	4.48396
73.2	0.496203
73.42	11.3747
73.64	32.2498
73.86	39.2182
74.08	21.288
74.3	2.36587
74.52	0.663775
74.74	2.89063
74.96	4.12368
75.18	4.2889
75.4	0.486328
75.62	0.443459
75.84	2.69474
76.06	4.70147
76.28	2.60096
76.5	0.687879
76.72	3.63401
76.94	2.40465
77.16	0.196125
77.38	2.24959
77.6	2.24896
77.82	0.305319
78.04	4.45152
78.26	7.47053
78.48	4.58761
78.7	5.6415
78.92	0.66924
79.14	0.756084
79.36	0.817653
79.58	3.85886
79.8	2.82745
80.02	1.70893
80.24	2.74852
80.46	2.65996
80.68	6.63929
80.9	3.53944
81.12	1.52135
81.34	5.67907
81.56	2.73972
81.78	1.77247
82	1.80871
82.22	2.85321
82.44	2.88697
82.66	1.87095
82.88	5.85555
83.1	2.85298
83.32	1.94569
83.54	2.90235
83.76	0.777199
83.98	2.73441
84.2	2.68104
84.42	4.64574
84.64	0.644909
84.86	0.730881
85.08	4.7313
85.3	4.72299
85.52	3.75838
85.74	2.77793
85.96	1.16673
86.18	2.75933
86.4	0.666839
86.62	1.59456
86.84	5.53792
87.06	3.46203
87.28	4.40689
87.5	8.52074
87.72	23.5156
87.94	5.49439
88.16	7.49094
88.38	3.51311
88.6	5.66689
88.82	0.830998
89.04	2.05035
89.26	4.26546
89.48	3.32404
89.7	4.50501
89.92	3.73877
