Measurement: Powder, Xray Data XY Processed
Mineral: Synchysite-(Ce)
Rruff sample: R060210
Ideal chemistry: CaCe(CO_3_)_2_F
Locality: Mont Saint-Hilaire, Rouville County, Quebec, Canada
Source: Royal Ontario Museum
Description: Yellowish-brown thin pseudohexagonal tablets
Diffraction sample description: Single crystal, powder profile is calculated
Measured chemistry: Ca_1.00_(Ce_0.55_(La,Pr)_0.28_Nd_0.15_Y_0.02_)(CO_3_)_2_F_1.00_
Cell parameters: a: 12.330(5) b: 7.110(2) c: 18.758(8) alpha: 90 beta: 102.70(2) gamma: 90 volume: 1604.1(10) crystal system: monoclinic
x	intensity
5	0
5.22	0
5.44	0
5.66	0
5.88	0
6.1	0
6.32	0
6.54	0
6.76	0
6.98	0
7.2	0
7.42	0
7.64	0
7.86	0
8.08	0
8.3	0
8.52	0
8.74	0
8.96	0
9.18	0
9.4	0
9.62	28.339
9.84	0
10.06	0
10.28	0
10.5	0
10.72	0
10.94	0
11.16	0
11.38	0
11.6	0
11.82	0
12.04	0
12.26	0
12.48	0
12.7	0
12.92	0
13.14	0
13.36	0
13.58	0
13.8	0
14.02	0
14.24	0
14.46	0.002
14.68	0.012
14.9	0
15.12	0
15.34	0
15.56	0
15.78	0.165
16	0
16.22	0
16.44	0.027
16.66	0
16.88	0
17.1	0
17.32	0
17.54	0
17.76	0
17.98	0
18.2	0.001
18.42	0.01
18.64	0
18.86	0
19.08	0
19.3	0.283
19.52	0.166
19.74	0
19.96	0
20.18	0
20.4	0
20.62	0
20.84	0
21.06	0
21.28	0
21.5	0
21.72	0.162
21.94	0
22.16	0
22.38	0
22.6	0
22.82	0
23.04	0
23.26	0
23.48	0
23.7	0
23.92	0
24.14	0
24.36	0
24.58	0
24.8	0
25.02	47.02
25.24	0
25.46	2.744
25.68	0.004
25.9	0
26.12	0
26.34	0
26.56	0
26.78	0.577
27	1.96
27.22	0
27.44	0
27.66	0
27.88	0
28.1	0
28.32	0
28.54	0
28.76	0
28.98	2.101
29.2	0.904
29.42	0.037
29.64	0.031
29.86	0.013
30.08	0.08
30.3	0
30.52	0
30.74	0
30.96	0
31.18	0.402
31.4	0
31.62	0
31.84	56.81
32.06	0.003
32.28	0
32.5	0
32.72	0
32.94	0
33.16	0
33.38	0.171
33.6	0
33.82	0
34.04	0
34.26	0.241
34.48	0
34.7	0
34.92	0
35.14	0.354
35.36	0
35.58	0
35.8	0.027
36.02	0.002
36.24	0
36.46	0
36.68	0
36.9	0
37.12	0.506
37.34	0
37.56	0
37.78	0
38	0
38.22	0
38.44	0
38.66	0.013
38.88	10.426
39.1	0.003
39.32	3.557
39.54	0.499
39.76	0
39.98	0
40.2	0
40.42	0.708
40.64	0.056
40.86	0.086
41.08	0.005
41.3	0
41.52	0
41.74	0
41.96	0
42.18	0.126
42.4	0
42.62	0
42.84	0.579
43.06	0.248
43.28	0
43.5	0
43.72	0.034
43.94	0.235
44.16	11.137
44.38	0.124
44.6	0.003
44.82	0
45.04	0
45.26	4.213
45.48	0.086
45.7	0
45.92	0
46.14	0
46.36	0
46.58	0.001
46.8	0.072
47.02	0.004
47.24	15.565
47.46	0.012
47.68	0
47.9	0
48.12	0.019
48.34	0.002
48.56	16.23
48.78	0.319
49	0
49.22	0
49.44	0
49.66	0.001
49.88	0.31
50.1	0
50.32	0.052
50.54	0.032
50.76	0
50.98	0
51.2	0.013
51.42	1.443
51.64	0.002
51.86	0.003
52.08	0
52.3	1.208
52.52	1.528
52.74	0.001
52.96	0
53.18	0
53.4	0
53.62	0.227
53.84	1.39
54.06	0.031
54.28	0.027
54.5	0.004
54.72	0
54.94	0.109
55.16	0.053
55.38	9.045
55.6	1.308
55.82	0
56.04	0
56.26	0.015
56.48	1.628
56.7	0.694
56.92	0.017
57.14	0.009
57.36	0
57.58	0.005
57.8	0.005
58.02	0
58.24	0.014
58.46	0.001
58.68	0
58.9	0.069
59.12	0.047
59.34	0.001
59.56	0
59.78	0
60	0.01
60.22	1.441
60.44	0.558
60.66	2.286
60.88	0.348
61.1	0.001
61.32	0.031
61.54	0.022
61.76	0.016
61.98	0.009
62.2	0
62.42	0
62.64	0
62.86	0
63.08	0.024
63.3	0.091
63.52	0.001
63.74	0
63.96	0
64.18	0.009
64.4	0.005
64.62	0.004
64.84	0
65.06	0.002
65.28	0.002
65.5	0
65.72	0
65.94	0
66.16	0.027
66.38	0.013
66.6	2.983
66.82	1.463
67.04	0.009
67.26	0.034
67.48	0.022
67.7	0.002
67.92	0.002
68.14	0
68.36	0.001
68.58	0.773
68.8	0.681
69.02	0.022
69.24	0.009
69.46	0
69.68	0.02
69.9	1.796
70.12	0.988
70.34	0.022
70.56	0.001
70.78	2.034
71	0.988
71.22	0.002
71.44	0
71.66	0
71.88	0.251
72.1	0.147
72.32	0.06
72.54	0.011
72.76	0.003
72.98	0.038
73.2	0.264
73.42	1.833
73.64	0.617
73.86	0
74.08	0
74.3	0.774
74.52	0.396
74.74	0.042
74.96	0.02
75.18	0.009
75.4	0.009
75.62	0.011
75.84	0.009
76.06	0.005
76.28	0.001
76.5	0.012
76.72	0.006
76.94	0
77.16	0
77.38	0.041
77.6	0.781
77.82	1.017
78.04	1.262
78.26	0.629
78.48	0.005
78.7	0.007
78.92	0.017
79.14	0.007
79.36	0.001
79.58	0.004
79.8	0.001
80.02	0
80.24	0.026
80.46	0.015
80.68	0.001
80.9	0.056
81.12	0.453
81.34	0.334
81.56	0.01
81.78	0.413
82	0.173
82.22	0.071
82.44	0
82.66	0
82.88	0.012
83.1	0.025
83.32	3.511
83.54	1.619
83.76	0.42
83.98	0.076
84.2	0.406
84.42	0.386
84.64	0.818
84.86	0.046
85.08	0.011
85.3	0.004
85.52	0.003
85.74	0.009
85.96	0.008
86.18	0.005
86.4	0.008
86.62	0.008
86.84	0.007
87.06	0.002
87.28	0.003
87.5	0.005
87.72	0.002
87.94	0.001
88.16	0.001
88.38	0.557
88.6	1.078
88.82	0.167
89.04	0.013
89.26	0.007
89.48	0.001
89.7	0.008
89.92	0.002
