Measurement: Powder, Xray Data XY Processed
Mineral: Syngenite
Rruff sample: R061002
Ideal chemistry: K_2_Ca(S^6+^O_4_)_2_H_2_O
Locality: Kalush, Ukraine
Source: Michael Scott
Description: Colorless transparent tabular crystal
Diffraction sample description: Powder
Measured chemistry: K_2.00_Ca_1.00_(S_1.00_O_4_)_2_·H_2_O ; light inclusions are (K_1.99_Na_0.01_)_Σ=2_S_1.00_O_4_ (arcanite) ; H not measured but estimated by difference
Cell parameters: a: 9.7746(3) b: 7.1474(2) c: 6.2491(3) alpha: 90 beta: 104.006(3) gamma: 90 volume: 423.60(2) crystal system: monoclinic
x	intensity
5	0
5.22	1.08081
5.44	0.576885
5.66	9.1906
5.88	2.18227
6.1	11.2645
6.32	11.4899
6.54	15.0415
6.76	12.1182
6.98	7.70867
7.2	6.08484
7.42	5.35109
7.64	4.59636
7.86	5.83245
8.08	5.01735
8.3	7.19303
8.52	1.47267
8.74	6.42393
8.96	5.24746
9.18	13.6318
9.4	47.6585
9.62	2.81118
9.84	5.10721
10.06	8.43729
10.28	1.05624
10.5	2.42137
10.72	0.09877
10.94	0.329094
11.16	7.77811
11.38	4.09094
11.6	1.79695
11.82	0.363058
12.04	0.702921
12.26	4.87658
12.48	3.97959
12.7	5.98766
12.92	4.93301
13.14	1.07239
13.36	3.06449
13.58	5.85659
13.8	5.08901
14.02	8.02177
14.24	5.88316
14.46	3.82678
14.68	7.76523
14.9	1.69919
15.12	2.90676
15.34	6.96881
15.56	153.699
15.78	3.71804
16	0.749558
16.22	5.58397
16.44	7.60751
16.66	3.6707
16.88	6.02895
17.1	2.99566
17.32	3.19628
17.54	1.88353
17.76	8.73518
17.98	1.36731
18.2	4.4392
18.42	1.75961
18.64	9.09084
18.86	5.92394
19.08	5.14943
19.3	22.7862
19.52	3.81736
19.74	44.7019
19.96	7.82361
20.18	0.048018
20.4	1.24854
20.62	4.37552
20.84	4.75141
21.06	2.20016
21.28	5.20402
21.5	1.14168
21.72	2.17714
21.94	2.11501
22.16	1.23239
22.38	12.1844
22.6	8.282
22.82	6.13202
23.04	6.25263
23.26	7.84542
23.48	0.879881
23.7	6.93395
23.92	0.848732
24.14	3.90583
24.36	1.85378
24.58	4.91971
24.8	4.0587
25.02	20.9276
25.24	5.91233
25.46	11.6417
25.68	3.59434
25.9	1.51936
26.12	6.46816
26.34	4.47556
26.56	8.21734
26.78	15.2554
27	5.8039
27.22	4.45335
27.44	3.12672
27.66	6.83975
27.88	6.91487
28.1	12.7573
28.32	184.227
28.54	4.1102
28.76	19.9813
28.98	6.09893
29.2	3.92583
29.42	40.3166
29.64	7.42572
29.86	8.29179
30.08	3.12689
30.3	1.56232
30.52	3.66877
30.74	6.31035
30.96	46.986
31.18	7.68331
31.4	138.198
31.62	79.8152
31.84	7.26542
32.06	22.2214
32.28	1.30946
32.5	2.67349
32.72	58.3793
32.94	7.98832
33.16	15.1918
33.38	7.74869
33.6	8.20945
33.82	1.51513
34.04	8.8476
34.26	5.37459
34.48	0.289151
34.7	2.87604
34.92	3.69948
35.14	2.49006
35.36	4.53234
35.58	9.43978
35.8	33.4018
36.02	1.42096
36.24	9.28957
36.46	5.08994
36.68	11.0828
36.9	3.80821
37.12	7.62836
37.34	3.44371
37.56	0.240804
37.78	8.89311
38	37.7157
38.22	68.4673
38.44	8.25419
38.66	3.28486
38.88	7.13792
39.1	8.30049
39.32	12.8029
39.54	8.24277
39.76	3.45318
39.98	0.629836
40.2	7.87589
40.42	2.29697
40.64	7.71982
40.86	7.97146
41.08	10.3152
41.3	3.33584
41.52	12.3631
41.74	4.16491
41.96	0.072638
42.18	4.88451
42.4	5.70196
42.62	1.49462
42.84	3.24747
43.06	6.88555
43.28	4.54706
43.5	34.3357
43.72	3.38108
43.94	4.49099
44.16	15.379
44.38	22.3705
44.6	0.517837
44.82	6.49799
45.04	3.51027
45.26	8.46441
45.48	1.47284
45.7	4.47653
45.92	6.60178
46.14	3.74909
46.36	23.6648
46.58	24.6005
46.8	23.4765
47.02	3.40918
47.24	3.59097
47.46	1.39334
47.68	3.60902
47.9	18.6549
48.12	10.9383
48.34	1.99706
48.56	9.66328
48.78	2.58407
49	7.7681
49.22	8.84467
49.44	3.21525
49.66	15.1532
49.88	1.21674
50.1	7.33405
50.32	1.39083
50.54	1.34185
50.76	6.23519
50.98	6.26517
51.2	27.8662
51.42	13.8055
51.64	8.92035
51.86	4.58709
52.08	5.47396
52.3	2.60423
52.52	6.23032
52.74	4.10733
52.96	19.6741
53.18	9.53314
53.4	5.37448
53.62	5.05066
53.84	1.99828
54.06	4.91804
54.28	4.05544
54.5	0.702403
54.72	5.60449
54.94	6.22966
55.16	4.45079
55.38	4.82731
55.6	3.18825
55.82	1.3094
56.04	0.58959
56.26	2.68798
56.48	3.82953
56.7	5.06839
56.92	2.3739
57.14	1.22003
57.36	2.75102
57.58	1.53246
57.8	7.45887
58.02	0.156242
58.24	0.10864
58.46	5.65537
58.68	5.45761
58.9	3.44218
59.12	7.09937
59.34	11.644
59.56	10.7528
59.78	6.93602
60	3.97409
60.22	1.07866
60.44	9.26308
60.66	0.584786
60.88	2.96292
61.1	4.15776
61.32	10.1343
61.54	1.31798
61.76	4.44395
61.98	6.38182
62.2	7.42734
62.42	8.60744
62.64	19.6093
62.86	6.59647
63.08	1.41829
63.3	2.19689
63.52	3.04954
63.74	6.21072
63.96	6.11722
64.18	10.0673
64.4	8.04773
64.62	5.88207
64.84	2.7143
65.06	6.76892
65.28	7.9374
65.5	9.07507
65.72	5.13933
65.94	2.18604
66.16	2.0303
66.38	7.17699
66.6	0.312646
66.82	0.36617
67.04	4.47029
67.26	5.59137
67.48	0.423367
67.7	3.3087
67.92	4.23836
68.14	3.46628
68.36	9.47259
68.58	0.373867
68.8	3.39613
69.02	0.845139
69.24	5.04655
69.46	5.98149
69.68	3.72254
69.9	6.59891
70.12	7.64985
70.34	11.4021
70.56	10.9693
70.78	4.81321
71	0.218056
71.22	7.57779
71.44	5.90542
71.66	12.9388
71.88	3.98682
72.1	2.36566
72.32	7.45775
72.54	2.42172
72.76	0.563504
72.98	2.71447
73.2	3.89007
73.42	7.03382
73.64	4.2801
73.86	4.26656
74.08	10.4167
74.3	9.19565
74.52	2.23142
74.74	4.38939
74.96	4.60239
75.18	4.6502
75.4	5.6203
75.62	0.547041
75.84	8.48198
76.06	3.05941
76.28	4.06962
76.5	7.94519
76.72	0.922509
76.94	0.050644
77.16	5.82344
77.38	2.79987
77.6	2.84552
77.82	2.11422
78.04	6.29632
78.26	1.40108
78.48	2.55113
78.7	1.69585
78.92	0.173693
79.14	5.87511
79.36	0.281873
79.58	2.48181
79.8	12.194
80.02	0.930062
80.24	2.50961
80.46	3.18637
80.68	2.9512
80.9	11.677
81.12	7.43213
81.34	4.19611
81.56	2.17219
81.78	5.4039
82	5.62576
82.22	5.81651
82.44	8.11969
82.66	6.27897
82.88	7.39257
83.1	2.59215
83.32	3.71927
83.54	12.7585
83.76	3.9128
83.98	9.06993
84.2	7.93961
84.42	12.8841
84.64	4.82251
84.86	6.82384
85.08	7.01221
85.3	2.14043
85.52	4.05909
85.74	0.098073
85.96	5.08264
86.18	3.12331
86.4	9.22642
86.62	7.06782
86.84	7.14181
87.06	2.24816
87.28	0.305125
87.5	3.47434
87.72	9.43479
87.94	3.5379
88.16	6.57456
88.38	4.65836
88.6	2.81001
88.82	3.6617
89.04	6.86355
89.26	4.55999
89.48	3.75049
89.7	5.15627
89.92	7.72716
