Measurement: Powder, Xray Data XY Processed
Mineral: Szaibelyite
Rruff sample: R060289
Ideal chemistry: MgBO_2_(OH)
Locality: Franklin, Sussex County, New Jersey, USA
Source: Herb Obodda
Description: Pink massive, associated with rhodochrosite
Diffraction sample description: Powder
Measured chemistry: (Mg_0.66_Mn^2+^_0.34_)BO_2_(OH) ; = gray phase: B and OH assumed by stoichiometry; light rim: (Mn^2+^_0.70_Ca_0.18_Mg_0.12_)CO_3_ is rhodochrosite; CO_2_ estimated by difference
Cell parameters: a: 3.1746(5) b: 10.5971(4) c: 12.6798(9) alpha: 90 beta: 96.090(9) gamma: 90 volume: 424.16(6) crystal system: monoclinic
x	intensity
5	0
5.22	8.63475
5.44	15.778
5.66	26.3688
5.88	16.8811
6.1	22.0025
6.32	16.9707
6.54	19.2707
6.76	7.67595
6.98	6.38828
7.2	11.193
7.42	9.16248
7.64	30.1774
7.86	16.4848
8.08	28.6503
8.3	9.71703
8.52	26.8122
8.74	21.777
8.96	31.9769
9.18	8.82419
9.4	10.1511
9.62	7.75195
9.84	34.0525
10.06	1.27544
10.28	48.8997
10.5	40.0918
10.72	16.3875
10.94	20.7877
11.16	22.5755
11.38	10.623
11.6	22.1042
11.82	27.0107
12.04	2.98763
12.26	20.0685
12.48	21.1604
12.7	14.7776
12.92	12.4494
13.14	19.6496
13.36	6.84431
13.58	15.1965
13.8	44.5541
14.02	480.096
14.24	39.2986
14.46	14.3905
14.68	15.2063
14.9	3.76585
15.12	14.4334
15.34	18.9469
15.56	16.0682
15.78	17.0278
16	14.7982
16.22	25.8295
16.44	21.9848
16.66	1.80605
16.88	14.5442
17.1	35.6685
17.32	36.4114
17.54	22.6185
17.76	1.4109
17.98	4.50149
18.2	17.3261
18.42	29.9941
18.64	31.3019
18.86	11.7902
19.08	15.4499
19.3	15.3297
19.52	13.6224
19.74	17.4652
19.96	17.4037
20.18	1.61745
20.4	0.239067
20.62	24.8971
20.84	22.415
21.06	15.7011
21.28	4.23392
21.5	30.565
21.72	20.524
21.94	27.697
22.16	8.12439
22.38	1.92119
22.6	22.7877
22.82	47.5496
23.04	22.4036
23.26	19.1996
23.48	18.9703
23.7	5.69348
23.92	21.9983
24.14	14.8363
24.36	19.4343
24.58	34.0884
24.8	31.2346
25.02	44.5891
25.24	3.34973
25.46	35.7696
25.68	15.1106
25.9	6.98765
26.12	39.7934
26.34	29.5742
26.56	30.9472
26.78	46.5013
27	25.8635
27.22	44.6609
27.44	3.51181
27.66	16.4342
27.88	20.7831
28.1	18.5255
28.32	26.0765
28.54	11.784
28.76	27.8046
28.98	34.3078
29.2	9.33281
29.42	14.8747
29.64	7.39748
29.86	15.0531
30.08	11.5035
30.3	2.53613
30.52	33.2377
30.74	27.352
30.96	7.67456
31.18	28.9057
31.4	30.0365
31.62	22.1354
31.84	15.279
32.06	13.4501
32.28	28.6639
32.5	2.04083
32.72	21.7063
32.94	48.3397
33.16	108.121
33.38	16.7448
33.6	7.18749
33.82	17.811
34.04	47.5319
34.26	25.5588
34.48	17.9062
34.7	49.0143
34.92	33.5581
35.14	4.3698
35.36	30.7416
35.58	20.7839
35.8	6.61137
36.02	6.85145
36.24	0.782715
36.46	41.004
36.68	70.4184
36.9	47.6086
37.12	19.6258
37.34	4.27115
37.56	20.6768
37.78	23.008
38	29.6205
38.22	46.8566
38.44	16.9665
38.66	31.2779
38.88	0.894966
39.1	5.9468
39.32	39.7848
39.54	15.5294
39.76	29.2087
39.98	24.5044
40.2	8.2674
40.42	36.2789
40.64	7.78332
40.86	9.20959
41.08	37.8949
41.3	25.227
41.52	3.9061
41.74	10.1645
41.96	1.13835
42.18	11.0892
42.4	18.0135
42.62	20.0329
42.84	34.7145
43.06	42.7293
43.28	0.670898
43.5	20.0846
43.72	8.15672
43.94	7.24202
44.16	22.4613
44.38	15.9659
44.6	37.6844
44.82	24.091
45.04	26.6293
45.26	11.8427
45.48	4.69025
45.7	18.1863
45.92	21.1928
46.14	24.1576
46.36	8.31895
46.58	12.927
46.8	27.4885
47.02	1.65536
47.24	2.45078
47.46	13.9692
47.68	29.3707
47.9	27.8022
48.12	25.8963
48.34	11.4146
48.56	7.17045
48.78	23.945
49	5.7113
49.22	19.2498
49.44	4.66956
49.66	19.5621
49.88	14.7859
50.1	6.4264
50.32	25.8275
50.54	15.3175
50.76	6.3332
50.98	22.4093
51.2	8.00061
51.42	13.1368
51.64	9.58003
51.86	44.1591
52.08	18.611
52.3	11.0882
52.52	0.380821
52.74	8.0259
52.96	17.1001
53.18	32.8218
53.4	18.9373
53.62	14.3934
53.84	17.8566
54.06	11.8913
54.28	0.520767
54.5	16.6462
54.72	21.5779
54.94	16.7361
55.16	10.3023
55.38	24.9869
55.6	25.9557
55.82	32.9983
56.04	19.3066
56.26	25.6065
56.48	13.3584
56.7	21.2297
56.92	20.311
57.14	5.23332
57.36	18.3827
57.58	16.3937
57.8	14.0025
58.02	20.7201
58.24	23.1511
58.46	35.6301
58.68	10.159
58.9	24.1577
59.12	10.5333
59.34	19.7337
59.56	26.6078
59.78	10.0942
60	15.5362
60.22	32.8816
60.44	11.254
60.66	32.895
60.88	11.9548
61.1	0.23838
61.32	7.33328
61.54	3.77873
61.76	24.2328
61.98	26.4425
62.2	16.1607
62.42	9.56038
62.64	16.6169
62.86	13.1425
63.08	22.3492
63.3	0.819542
63.52	16.4304
63.74	7.45441
63.96	25.5622
64.18	12.1057
64.4	15.292
64.62	25.695
64.84	7.9719
65.06	31.0642
65.28	10.2845
65.5	33.6401
65.72	16.4604
65.94	18.5998
66.16	7.60834
66.38	19.5956
66.6	20.6688
66.82	21.1069
67.04	24.5157
67.26	10.5335
67.48	11.3261
67.7	4.86095
67.92	10.7244
68.14	40.7685
68.36	25.9943
68.58	7.82414
68.8	12.9778
69.02	18.8313
69.24	26.5509
69.46	10.8798
69.68	18.2596
69.9	16.8175
70.12	5.38117
70.34	27.3326
70.56	0.704262
70.78	35.7987
71	5.60215
71.22	21.8338
71.44	17.6236
71.66	23.4913
71.88	20.1304
72.1	11.2168
72.32	20.6715
72.54	13.4121
72.76	14.6975
72.98	7.15925
73.2	12.6392
73.42	20.4644
73.64	8.61321
73.86	14.7006
74.08	12.2599
74.3	39.9232
74.52	9.23081
74.74	21.1627
74.96	21.4556
75.18	22.5286
75.4	19.5617
75.62	4.77628
75.84	17.153
76.06	19.9433
76.28	18.8097
76.5	1.13604
76.72	16.8872
76.94	11.3369
77.16	5.80973
77.38	22.2358
77.6	22.3933
77.82	16.6338
78.04	0.874569
78.26	8.53246
78.48	8.87355
78.7	0.545105
78.92	14.7208
79.14	8.97478
79.36	8.13661
79.58	20.6234
79.8	13.2212
80.02	24.3841
80.24	9.87086
80.46	2.72917
80.68	19.3258
80.9	0.962448
81.12	21.9316
81.34	21.8957
81.56	7.6754
81.78	14.351
82	12.5064
82.22	5.10917
82.44	6.12132
82.66	13.0319
82.88	14.0793
83.1	13.7254
83.32	24.0347
83.54	19.7091
83.76	15.0188
83.98	7.21426
84.2	7.30351
84.42	5.12027
84.64	11.8779
84.86	6.77496
85.08	24.3516
85.3	23.5485
85.52	17.2811
85.74	26.2514
85.96	0.760578
86.18	12.1924
86.4	30.3976
86.62	2.0827
86.84	21.6704
87.06	7.57479
87.28	13.611
87.5	29.7585
87.72	12.3356
87.94	11.3529
88.16	16.0079
88.38	30.3639
88.6	16.8275
88.82	7.29103
89.04	31.0918
89.26	11.8066
89.48	13.6342
89.7	23.8697
89.92	31.4968
