Measurement: Powder, Xray Data XY Processed
Mineral: Szaibelyite
Rruff sample: R070498
Ideal chemistry: MgBO_2_(OH)
Locality: Stinson Beach, Marin County, California, USA
Source: James Shigley
Description: Matted aggregates of white fibrous crystals, associated with magnetite and chromite
Diffraction sample description: Powder
Cell parameters: a: 12.5828(6) b: 10.4107(2) c: 3.1367(5) alpha: 90 beta: 95.845(7) gamma: 90 volume: 408.76(6) crystal system: monoclinic
x	intensity
5	0
5.22	17.7537
5.44	24.8373
5.66	10.8804
5.88	20.3551
6.1	9.65062
6.32	27.0389
6.54	19.569
6.76	16.455
6.98	27.3822
7.2	11.9201
7.42	13.4427
7.64	31.2613
7.86	15.6465
8.08	20.4966
8.3	14.0296
8.52	17.3907
8.74	5.46572
8.96	22.0619
9.18	0.228775
9.4	15.8297
9.62	25.0285
9.84	10.38
10.06	18.574
10.28	12.7141
10.5	5.40269
10.72	1.33286
10.94	12.9653
11.16	34.1047
11.38	0.074402
11.6	23.3427
11.82	18.0258
12.04	50.9841
12.26	57.7898
12.48	15.2303
12.7	18.4538
12.92	10.9966
13.14	8.12415
13.36	6.91753
13.58	5.54548
13.8	1.59717
14.02	47.0218
14.24	65.316
14.46	5.0695
14.68	14.8551
14.9	24.4474
15.12	21.7223
15.34	12.9787
15.56	3.04324
15.78	12.0038
16	16.3096
16.22	1.17169
16.44	15.1278
16.66	7.20805
16.88	5.86303
17.1	127.795
17.32	15.3961
17.54	21.7709
17.76	7.20954
17.98	6.01682
18.2	17.0632
18.42	11.9363
18.64	28.9508
18.86	1.22211
19.08	4.25061
19.3	18.3935
19.52	31.9043
19.74	14.5297
19.96	26.6397
20.18	17.548
20.4	22.0656
20.62	13.5479
20.84	6.51769
21.06	8.13082
21.28	1.36546
21.5	5.86831
21.72	19.0796
21.94	0.189114
22.16	15.172
22.38	10.2759
22.6	10.4947
22.82	4.34793
23.04	15.6314
23.26	2.31868
23.48	12.1575
23.7	21.0881
23.92	20.4476
24.14	25.5219
24.36	54.0802
24.58	41.9596
24.8	18.4533
25.02	3.34608
25.24	7.77355
25.46	16.5875
25.68	4.20866
25.9	3.05343
26.12	10.1237
26.34	18.3434
26.56	9.77174
26.78	24.187
27	19.1347
27.22	23.3634
27.44	105.081
27.66	18.6663
27.88	17.3702
28.1	11.702
28.32	1.31339
28.54	26.6632
28.76	19.0521
28.98	1.60292
29.2	13.3888
29.42	162.797
29.64	5.57534
29.86	50.2634
30.08	37.055
30.3	20.5784
30.52	7.96369
30.74	13.435
30.96	17.7847
31.18	8.10734
31.4	19.9818
31.62	8.33565
31.84	14.8024
32.06	3.00732
32.28	17.5742
32.5	7.11974
32.72	3.92077
32.94	4.32745
33.16	3.29217
33.38	70.262
33.6	253.349
33.82	39.9301
34.04	2.12928
34.26	9.55989
34.48	47.6448
34.7	22.2109
34.92	55.0105
35.14	31.9988
35.36	105.764
35.58	31.8844
35.8	13.9881
36.02	14.2151
36.24	8.03053
36.46	4.54319
36.68	10.1261
36.9	139.429
37.12	28.9584
37.34	13.011
37.56	18.8925
37.78	26.1493
38	12.2602
38.22	8.90224
38.44	11.5969
38.66	31.2811
38.88	92.1668
39.1	22.9047
39.32	15.224
39.54	16.3988
39.76	4.94221
39.98	4.54506
40.2	10.2004
40.42	0.648342
40.64	17.4202
40.86	283.387
41.08	14.2073
41.3	12.4759
41.52	4.8607
41.74	21.1854
41.96	13.3277
42.18	16.4987
42.4	12.592
42.62	34.6602
42.84	17.4709
43.06	18.8221
43.28	44.1775
43.5	51.9095
43.72	13.9275
43.94	13.4618
44.16	18.0018
44.38	3.8972
44.6	38.1959
44.82	0.652603
45.04	9.09481
45.26	46.5724
45.48	65.9424
45.7	13.7034
45.92	48.6168
46.14	25.484
46.36	11.021
46.58	1.95052
46.8	9.32175
47.02	14.7552
47.24	2.25662
47.46	34.2005
47.68	15.0775
47.9	2.0011
48.12	11.342
48.34	17.138
48.56	15.5881
48.78	20.5173
49	7.6578
49.22	10.9267
49.44	23.5854
49.66	6.80926
49.88	9.86802
50.1	9.65622
50.32	1.78527
50.54	6.39033
50.76	10.0085
50.98	16.0414
51.2	14.4024
51.42	2.85796
51.64	6.32014
51.86	16.3152
52.08	3.34284
52.3	18.39
52.52	29.9237
52.74	36.8042
52.96	56.4528
53.18	6.56339
53.4	21.6644
53.62	0.440163
53.84	7.21365
54.06	32.2016
54.28	26.9008
54.5	3.62797
54.72	4.86515
54.94	5.37784
55.16	3.74746
55.38	5.76776
55.6	20.2926
55.82	25.1171
56.04	23.9363
56.26	23.9732
56.48	8.34672
56.7	13.0423
56.92	21.0756
57.14	19.9141
57.36	19.3594
57.58	38.2506
57.8	24.8957
58.02	11.922
58.24	11.3535
58.46	16.7291
58.68	18.0142
58.9	12.6708
59.12	14.6192
59.34	29.258
59.56	14.4156
59.78	29.3827
60	5.45226
60.22	16.51
60.44	4.20936
60.66	1.99414
60.88	0.473072
61.1	27.234
61.32	26.5662
61.54	8.6547
61.76	11.7196
61.98	26.6865
62.2	19.2643
62.42	11.8937
62.64	13.6088
62.86	32.6574
63.08	34.2938
63.3	3.48723
63.52	14.086
63.74	10.8157
63.96	13.8862
64.18	17.4502
64.4	3.9637
64.62	3.05549
64.84	9.16447
65.06	13.7162
65.28	9.40437
65.5	17.6114
65.72	5.33516
65.94	6.82133
66.16	1.57782
66.38	12.6724
66.6	7.09248
66.82	5.11414
67.04	4.8363
67.26	2.93551
67.48	5.3541
67.7	13.9304
67.92	8.82503
68.14	4.89603
68.36	7.10218
68.58	7.28898
68.8	7.19161
69.02	11.9225
69.24	13.9304
69.46	17.1334
69.68	6.89538
69.9	0.732746
70.12	19.5565
70.34	16.1142
70.56	25.3703
70.78	23.0647
71	19.4862
71.22	10.5179
71.44	7.72654
71.66	15.8759
71.88	0.797518
72.1	1.75448
72.32	21.8956
72.54	18.8903
72.76	3.74919
72.98	3.52514
73.2	8.64282
73.42	13.6628
73.64	10.5543
73.86	5.33289
74.08	7.76189
74.3	8.32481
74.52	3.35649
74.74	7.43448
74.96	15.2461
75.18	5.72065
75.4	6.82522
75.62	2.73096
75.84	4.37993
76.06	0.732119
76.28	8.98592
76.5	14.1676
76.72	12.9264
76.94	15.2287
77.16	14.6779
77.38	9.58018
77.6	0.958677
77.82	13.3151
78.04	11.7485
78.26	5.80241
78.48	3.3744
78.7	3.33246
78.92	18.3638
79.14	5.64996
79.36	2.92943
79.58	11.4685
79.8	16.3769
80.02	15.3112
80.24	18.3269
80.46	7.22364
80.68	4.32826
80.9	14.805
81.12	9.78692
81.34	2.80679
81.56	20.6409
81.78	5.57198
82	5.3922
82.22	11.3538
82.44	2.32917
82.66	6.23482
82.88	3.39584
83.1	7.55721
83.32	14.5478
83.54	21.0759
83.76	9.11497
83.98	5.53579
84.2	15.6942
84.42	6.99257
84.64	15.9358
84.86	8.24667
85.08	6.4582
85.3	0.471992
85.52	0.034063
85.74	5.23476
85.96	12.1113
86.18	21.1204
86.4	8.26205
86.62	13.4979
86.84	10.6141
87.06	14.6972
87.28	2.62732
87.5	1.29428
87.72	6.54732
87.94	17.5501
88.16	9.57321
88.38	17.5318
88.6	9.70319
88.82	26.4241
89.04	10.0796
89.26	19.0783
89.48	11.3616
89.7	15.5415
89.92	1.11521
