Measurement: Powder, Xray Data XY Processed
Mineral: Tainiolite
Rruff sample: R061070
Ideal chemistry: KLiMg_2_Si_4_O_10_F_2_
Locality: Mont Saint-Hilaire, Quebec, Canada
Source: Bob Downs
Description: Brown hexagonal prism
Diffraction sample description: Powder
Cell parameters: a: 5.241(1) b: 9.049(1) c: 10.1471(4) alpha: 90 beta: 100.064(8) gamma: 90 volume: 473.8(1) crystal system: monoclinic
x	intensity
5	0
5.22	6.76007
5.44	0.167635
5.66	13.2031
5.88	19.322
6.1	16.6697
6.32	4.24352
6.54	2.97872
6.76	9.49619
6.98	16.3764
7.2	13.3342
7.42	2.78171
7.64	6.77942
7.86	9.39803
8.08	5.53228
8.3	5.83591
8.52	12.1472
8.74	159.228
8.96	80.9383
9.18	5.17507
9.4	11.3421
9.62	6.79978
9.84	4.95192
10.06	4.04095
10.28	12.308
10.5	1.39752
10.72	1.52963
10.94	4.70989
11.16	6.37478
11.38	8.92257
11.6	10.7549
11.82	12.0738
12.04	0.203291
12.26	8.24084
12.48	5.60027
12.7	4.10455
12.92	7.01129
13.14	1.91047
13.36	5.8274
13.58	16.0688
13.8	6.9908
14.02	3.74644
14.24	13.3377
14.46	9.26591
14.68	2.99397
14.9	0.019711
15.12	15.0112
15.34	6.77981
15.56	9.29284
15.78	7.13573
16	15.3066
16.22	2.18722
16.44	6.07848
16.66	5.36085
16.88	2.17143
17.1	5.98443
17.32	9.68653
17.54	10.6006
17.76	353.55
17.98	23.5319
18.2	8.35289
18.42	2.94299
18.64	2.03815
18.86	6.98994
19.08	5.70125
19.3	6.77246
19.52	1.90728
19.74	12.3782
19.96	9.53833
20.18	1.28074
20.4	8.36578
20.62	1.56403
20.84	10.5234
21.06	11.5372
21.28	5.8213
21.5	3.37725
21.72	13.4485
21.94	6.51224
22.16	15.4724
22.38	12.7553
22.6	8.07667
22.82	2.11233
23.04	18.0936
23.26	7.08855
23.48	10.0597
23.7	5.63469
23.92	2.57368
24.14	30.7501
24.36	10.6878
24.58	31.3015
24.8	12.4813
25.02	4.838
25.24	4.22656
25.46	8.74975
25.68	7.25047
25.9	21.7514
26.12	12.7962
26.34	18.2524
26.56	92.7083
26.78	1063.48
27	46.1631
27.22	4.05794
27.44	0.954933
27.66	7.91204
27.88	2.88129
28.1	9.91903
28.32	0.421591
28.54	22.7218
28.76	76.6638
28.98	11.4479
29.2	11.3522
29.42	7.83528
29.64	0.08465
29.86	1.98022
30.08	4.06709
30.3	7.20393
30.52	4.1305
30.74	14.4852
30.96	45.3996
31.18	5.52344
31.4	10.7861
31.62	9.2193
31.84	9.26653
32.06	13.3161
32.28	6.34427
32.5	0.334841
32.72	14.3957
32.94	9.19593
33.16	13.778
33.38	71.5817
33.6	15.3394
33.82	7.23358
34.04	2.47958
34.26	17.7628
34.48	17.0433
34.7	11.1022
34.92	21.2263
35.14	4.27414
35.36	10.4743
35.58	5.66197
35.8	14.1456
36.02	41.5391
36.24	12.737
36.46	15.8436
36.68	11.5137
36.9	0.329269
37.12	9.08368
37.34	16.2211
37.56	25.355
37.78	13.5742
38	5.70559
38.22	14.6214
38.44	9.71449
38.66	12.1201
38.88	5.20352
39.1	7.38185
39.32	2.98893
39.54	9.43065
39.76	3.36327
39.98	12.2553
40.2	12.1382
40.42	2.85251
40.64	14.801
40.86	15.4493
41.08	13.0022
41.3	1.03854
41.52	8.80901
41.74	10.7876
41.96	8.49994
42.18	19.7726
42.4	2.99593
42.62	7.12419
42.84	6.89829
43.06	2.91034
43.28	17.0543
43.5	10.104
43.72	6.93583
43.94	8.70937
44.16	8.34209
44.38	3.87132
44.6	7.35842
44.82	3.91649
45.04	8.51808
45.26	52.5272
45.48	197.353
45.7	14.6309
45.92	12.7425
46.14	13.3295
46.36	10.7378
46.58	14.1412
46.8	5.81943
47.02	6.31734
47.24	7.88213
47.46	12.3968
47.68	10.7324
47.9	3.3032
48.12	10.7878
48.34	9.91862
48.56	5.86827
48.78	4.23024
49	4.3544
49.22	7.35975
49.44	1.35589
49.66	7.22267
49.88	18.3157
50.1	6.70472
50.32	6.28014
50.54	8.87673
50.76	1.8628
50.98	0.906849
51.2	9.96791
51.42	5.93446
51.64	5.07728
51.86	7.3237
52.08	9.40557
52.3	8.07272
52.52	8.47752
52.74	0.687283
52.96	4.96926
53.18	7.77785
53.4	10.6343
53.62	22.3399
53.84	7.98296
54.06	4.30724
54.28	2.19002
54.5	9.86615
54.72	16.3264
54.94	5.98348
55.16	17.8127
55.38	40.5888
55.6	37.6761
55.82	8.43704
56.04	18.9915
56.26	0.817021
56.48	8.18759
56.7	1.22682
56.92	13.1065
57.14	6.48292
57.36	1.61549
57.58	3.778
57.8	2.94465
58.02	15.9894
58.24	7.03221
58.46	4.15868
58.68	0.063803
58.9	2.78701
59.12	4.54275
59.34	5.37903
59.56	11.097
59.78	8.56037
60	8.17119
60.22	5.61456
60.44	13.2228
60.66	10.9483
60.88	16.4753
61.1	8.93977
61.32	12.6406
61.54	4.06703
61.76	10.3238
61.98	12.7624
62.2	1.40583
62.42	10.9323
62.64	10.5431
62.86	11.1185
63.08	9.36819
63.3	7.90212
63.52	6.2971
63.74	18.4693
63.96	1.60056
64.18	7.29036
64.4	7.1546
64.62	10.7485
64.84	3.67666
65.06	12.4739
65.28	19.5252
65.5	12.3191
65.72	2.44667
65.94	1.4142
66.16	1.4636
66.38	0.381406
66.6	5.48882
66.82	4.34796
67.04	9.96695
67.26	13.075
67.48	6.67167
67.7	10.3352
67.92	5.20861
68.14	6.64841
68.36	3.28887
68.58	9.98579
68.8	6.61684
69.02	5.27332
69.24	20.8262
69.46	17.4407
69.68	21.0339
69.9	9.78574
70.12	8.96595
70.34	4.14979
70.56	0.757049
70.78	8.13125
71	8.46936
71.22	2.36923
71.44	5.76952
71.66	6.79946
71.88	3.76185
72.1	11.7557
72.32	6.42854
72.54	6.48927
72.76	7.29602
72.98	0.115242
73.2	7.204
73.42	9.40118
73.64	4.71913
73.86	2.27598
74.08	6.66929
74.3	2.09161
74.52	3.24972
74.74	0.624214
74.96	13.1958
75.18	20.1369
75.4	9.91037
75.62	11.729
75.84	9.82427
76.06	13.6075
76.28	22.2603
76.5	16.9911
76.72	3.35545
76.94	7.42807
77.16	7.49827
77.38	3.1217
77.6	9.68088
77.82	8.79001
78.04	5.56371
78.26	7.5959
78.48	0.310782
78.7	11.8152
78.92	2.66319
79.14	8.29355
79.36	4.5546
79.58	9.65952
79.8	8.18864
80.02	7.79427
80.24	3.87134
80.46	5.93838
80.68	2.99747
80.9	5.04005
81.12	3.28899
81.34	10.335
81.56	3.75883
81.78	6.41946
82	17.6866
82.22	3.11472
82.44	9.06368
82.66	6.41346
82.88	8.74324
83.1	6.89806
83.32	13.9302
83.54	15.8261
83.76	14.9688
83.98	9.06469
84.2	10.1159
84.42	6.86204
84.64	14.7818
84.86	3.70327
85.08	8.29359
85.3	3.04075
85.52	11.8057
85.74	2.96119
85.96	3.86086
86.18	13.7632
86.4	4.20947
86.62	10.3374
86.84	6.35866
87.06	7.32059
87.28	6.56115
87.5	2.66329
87.72	2.24241
87.94	7.93242
88.16	8.89836
88.38	11.0876
88.6	3.50662
88.82	3.4558
89.04	6.58267
89.26	3.69587
89.48	4.95361
89.7	1.83251
89.92	4.24632
