Measurement: Powder, Xray Data XY Processed
Mineral: Talc
Rruff sample: R050058
Ideal chemistry: Mg_3_Si_4_O_10_(OH)_2_
Locality: Murphy, North Carolina, USA
Source: Rock Currier
Description: Fine-grained massive fragment
Diffraction sample description: Powder
Measured chemistry: (Mg_.994_Fe_.006_)_3_(Si_.996_Al_.004_)_4_O_10_(OH)_2_
Cell parameters: a: 4.774(1) b: 8.8749(5) c: 19.246(1) alpha: 90. beta: 103.77(1) gamma: 90. volume: 792.1(2) crystal system: monoclinic
x	intensity
5	0
5.22	3.101
5.44	16.401
5.66	1.676
5.88	10.23
6.1	13.692
6.32	13.132
6.54	18.004
6.76	13.671
6.98	7.708
7.2	5.727
7.42	12.742
7.64	10.188
7.86	19.396
8.08	7.463
8.3	11.38
8.52	24.762
8.74	8.657
8.96	14.76
9.18	70.118
9.4	813.797
9.62	215.779
9.84	41.818
10.06	17.324
10.28	19.869
10.5	5.639
10.72	10.539
10.94	12.316
11.16	5.633
11.38	8.654
11.6	7.499
11.82	1.923
12.04	11.816
12.26	13.021
12.48	16.298
12.7	11.805
12.92	10.305
13.14	2.993
13.36	5.394
13.58	14.185
13.8	7.392
14.02	13.771
14.24	15.613
14.46	16.1
14.68	11.57
14.9	8.774
15.12	10.952
15.34	16.73
15.56	17.607
15.78	0.246
16	7.68
16.22	4.004
16.44	9.862
16.66	2.642
16.88	4.158
17.1	14.633
17.32	7.383
17.54	11.829
17.76	4.508
17.98	10.624
18.2	0.77
18.42	6.83
18.64	0.561
18.86	25.487
19.08	157.028
19.3	2.968
19.52	44.863
19.74	21.26
19.96	6.345
20.18	18.653
20.4	17.369
20.62	11.012
20.84	1.164
21.06	2.276
21.28	6.292
21.5	6.128
21.72	13.457
21.94	2.411
22.16	8.93
22.38	0.228
22.6	7.253
22.82	12.504
23.04	12.743
23.26	5.583
23.48	0.422
23.7	8.457
23.92	3.341
24.14	11.388
24.36	8.573
24.58	3.817
24.8	17.446
25.02	1.372
25.24	9.823
25.46	12.705
25.68	29.184
25.9	28.163
26.12	0.845
26.34	11.694
26.56	7.308
26.78	0.514
27	7.611
27.22	7.628
27.44	13.287
27.66	4.208
27.88	1.094
28.1	18.028
28.32	21.157
28.54	142.289
28.76	640.397
28.98	21.431
29.2	13.632
29.42	11.15
29.64	4.573
29.86	2.628
30.08	15.349
30.3	10.144
30.52	10.154
30.74	7.049
30.96	18.521
31.18	17.883
31.4	18.872
31.62	22.16
31.84	0.699
32.06	0.624
32.28	9.446
32.5	0.519
32.72	12.913
32.94	10.419
33.16	0.414
33.38	3.667
33.6	1.635
33.82	7.906
34.04	13.558
34.26	8.798
34.48	8.811
34.7	15.278
34.92	13.066
35.14	15.508
35.36	7.547
35.58	0.184
35.8	14.933
36.02	14.408
36.24	21.452
36.46	16.889
36.68	17.372
36.9	9.568
37.12	0.348
37.34	5.572
37.56	3.08
37.78	3.618
38	4.329
38.22	3.249
38.44	9.455
38.66	20.765
38.88	4.612
39.1	3.054
39.32	7.16
39.54	4.97
39.76	17.795
39.98	10.729
40.2	14.524
40.42	2.972
40.64	21.183
40.86	18.166
41.08	13.248
41.3	16.551
41.52	14.019
41.74	0.708
41.96	10.359
42.18	10.052
42.4	2.859
42.62	4.799
42.84	4.659
43.06	22.305
43.28	34.683
43.5	32.125
43.72	18.92
43.94	12.507
44.16	0.53
44.38	10.465
44.6	2.185
44.82	20.113
45.04	4.867
45.26	4.168
45.48	6.556
45.7	8.918
45.92	11.087
46.14	14.347
46.36	5.683
46.58	8.594
46.8	12.051
47.02	9.177
47.24	6.412
47.46	14.441
47.68	6.504
47.9	0.69
48.12	0.812
48.34	3.171
48.56	12.064
48.78	31.541
49	13.268
49.22	13.227
49.44	7.585
49.66	7.905
49.88	10.309
50.1	3.232
50.32	9.859
50.54	17.911
50.76	6.823
50.98	9.799
51.2	12.875
51.42	20.946
51.64	8.635
51.86	11.939
52.08	12.783
52.3	14.298
52.52	12.891
52.74	7.554
52.96	11.686
53.18	0.533
53.4	7.191
53.62	2.394
53.84	9.545
54.06	1.563
54.28	7.494
54.5	10.698
54.72	13.016
54.94	10.478
55.16	15.186
55.38	5.289
55.6	9.755
55.82	13.097
56.04	3.216
56.26	2.616
56.48	12.487
56.7	6.567
56.92	1.307
57.14	6.646
57.36	11.236
57.58	13.288
57.8	3.316
58.02	14.395
58.24	2.522
58.46	2.632
58.68	3.137
58.9	14.332
59.12	0.916
59.34	35.192
59.56	9.998
59.78	6.112
60	19.564
60.22	7.457
60.44	13.325
60.66	11.384
60.88	10.616
61.1	11.111
61.32	10.043
61.54	8.594
61.76	3.069
61.98	5.252
62.2	6.722
62.42	4.837
62.64	0.918
62.86	5.208
63.08	8.187
63.3	12.078
63.52	18.801
63.74	7.701
63.96	6.573
64.18	2.357
64.4	1.583
64.62	10.412
64.84	4.408
65.06	1.061
65.28	6.591
65.5	5.102
65.72	2.7
65.94	5.089
66.16	7.616
66.38	14.12
66.6	9.604
66.82	17.715
67.04	13.244
67.26	12.004
67.48	7.111
67.7	15.613
67.92	7.19
68.14	11.975
68.36	11.816
68.58	2.451
68.8	1.254
69.02	21.746
69.24	5.6
69.46	0.92
69.68	5.138
69.9	3.414
70.12	5.603
70.34	12.456
70.56	4.043
70.78	4.851
71	2.778
71.22	2.839
71.44	10.83
71.66	9.44
71.88	8.498
72.1	9.637
72.32	7.724
72.54	8.606
72.76	7.897
72.98	13.003
73.2	10.123
73.42	10.773
73.64	2.59
73.86	11.866
74.08	12.803
74.3	5.306
74.52	6.188
74.74	10.265
74.96	2.232
75.18	2.927
75.4	0.898
75.62	5.81
75.84	10.316
76.06	14.5
76.28	4.986
76.5	11.702
76.72	2.433
76.94	20.517
77.16	10.767
77.38	2.858
77.6	12.226
77.82	10.404
78.04	3.782
78.26	2.009
78.48	6.057
78.7	9.485
78.92	10.729
79.14	1.837
79.36	3.816
79.58	6.923
79.8	3.079
80.02	9.982
80.24	6.9
80.46	10.695
80.68	0.097
80.9	10.855
81.12	6.714
81.34	4.63
81.56	7.445
81.78	9.303
82	3.148
82.22	6.403
82.44	11.479
82.66	3.454
82.88	19.422
83.1	1.392
83.32	3.279
83.54	7.097
83.76	2.368
83.98	5.634
84.2	8.698
84.42	9.86
84.64	6.163
84.86	14.204
85.08	9.364
85.3	4.394
85.52	6.179
85.74	1.188
85.96	10.947
86.18	7.17
86.4	8.378
86.62	7.379
86.84	4.46
87.06	7.787
87.28	17.069
87.5	8.061
87.72	6.293
87.94	11.42
88.16	6.429
88.38	11.273
88.6	4.109
88.82	6.754
89.04	2.698
89.26	4.175
89.48	8.647
89.7	3.342
89.92	2.871
