Measurement: Powder, Xray Data XY Processed
Mineral: Talc
Rruff sample: R050087
Ideal chemistry: Mg_3_Si_4_O_10_(OH)_2_
Locality: St. Lawrence County, New York, USA
Source: University of Arizona Mineral Museum
Description: An aggregate of colorless foliated coarse single crystals
Diffraction sample description: Powder, cell parameters are from single crystal
Measured chemistry: (Mg_.998_Fe_.002_)_3_(Si_.997_Al_.003_)_4_O_10_(OH_.966_F_.034_)_2_
Cell parameters: a: 5.230(5) b: 9.076(8) c: 9.38(1) alpha: 90.73(4) beta: 99.09(4) gamma: 90.13(3) volume: 439.7(7) crystal system: triclinic
x	intensity
5	0
5.22	4.433
5.44	11.372
5.66	21.438
5.88	14.689
6.1	3.319
6.32	19.01
6.54	17.255
6.76	16.643
6.98	30.62
7.2	9.957
7.42	6.74
7.64	9.592
7.86	17.193
8.08	1.313
8.3	5.129
8.52	13.341
8.74	1.43
8.96	24.207
9.18	58.343
9.4	380.619
9.62	115.189
9.84	30.843
10.06	22.205
10.28	11.091
10.5	6.685
10.72	2.674
10.94	3.571
11.16	0.702
11.38	3.583
11.6	12.622
11.82	0.739
12.04	1.893
12.26	4.362
12.48	7.614
12.7	11.573
12.92	4.313
13.14	5.212
13.36	1.847
13.58	14.16
13.8	1.965
14.02	10.354
14.24	9.448
14.46	3.271
14.68	5.599
14.9	5.55
15.12	7.96
15.34	1.943
15.56	10.153
15.78	0.671
16	7.364
16.22	6.943
16.44	11.838
16.66	4.906
16.88	3.986
17.1	9.903
17.32	13.419
17.54	6.018
17.76	0.51
17.98	3.93
18.2	12.31
18.42	9.694
18.64	9.613
18.86	31.06
19.08	58.79
19.3	0.196
19.52	20.497
19.74	21.895
19.96	9.609
20.18	1.18
20.4	0.965
20.62	8.698
20.84	5.139
21.06	6.806
21.28	4.419
21.5	12.723
21.72	8.212
21.94	8.434
22.16	5.84
22.38	7.257
22.6	11.476
22.82	5.685
23.04	8.867
23.26	1.027
23.48	0.875
23.7	5.868
23.92	5.94
24.14	11.403
24.36	1.053
24.58	9.527
24.8	8.071
25.02	15.766
25.24	16.366
25.46	33.636
25.68	48.275
25.9	17.399
26.12	9.504
26.34	0.744
26.56	0.573
26.78	6.288
27	6.851
27.22	11.288
27.44	4.41
27.66	1.007
27.88	16.455
28.1	6.913
28.32	14.522
28.54	132.015
28.76	211.304
28.98	26.034
29.2	2.833
29.42	10.531
29.64	1.052
29.86	6.526
30.08	14.845
30.3	1.795
30.52	9.918
30.74	6.402
30.96	8.508
31.18	13.539
31.4	8.793
31.62	11.926
31.84	13.059
32.06	3.643
32.28	10.048
32.5	16.418
32.72	10.662
32.94	6.069
33.16	6.755
33.38	2.331
33.6	2.51
33.82	7.127
34.04	17.915
34.26	10.941
34.48	18.707
34.7	17.137
34.92	9.015
35.14	51.206
35.36	40.732
35.58	3.436
35.8	4.496
36.02	19.883
36.24	25.279
36.46	1.921
36.68	2.635
36.9	6.258
37.12	11.565
37.34	1.773
37.56	16.779
37.78	34.718
38	11.19
38.22	3.343
38.44	5.282
38.66	12.76
38.88	10.242
39.1	3.238
39.32	3.881
39.54	4.803
39.76	3.451
39.98	6.029
40.2	2.955
40.42	10.369
40.64	12.955
40.86	11.907
41.08	12.66
41.3	4.408
41.52	13.008
41.74	0.721
41.96	8.435
42.18	9.188
42.4	5.971
42.62	12.782
42.84	17.376
43.06	18.115
43.28	49.533
43.5	43.713
43.72	9.02
43.94	15.73
44.16	9.636
44.38	4.46
44.6	2.354
44.82	9.069
45.04	6.93
45.26	9.57
45.48	6.025
45.7	0.048
45.92	11.475
46.14	10.823
46.36	9.263
46.58	15.29
46.8	16.399
47.02	16.991
47.24	10.461
47.46	5.448
47.68	7.397
47.9	9.488
48.12	3.497
48.34	15.653
48.56	21.799
48.78	28.575
49	8.694
49.22	1.898
49.44	9.848
49.66	15.137
49.88	8.245
50.1	4.452
50.32	2.074
50.54	2.009
50.76	4.904
50.98	5.648
51.2	11.455
51.42	5.25
51.64	7.817
51.86	0.986
52.08	3.782
52.3	14.77
52.52	35.408
52.74	15.124
52.96	16.094
53.18	4.975
53.4	3.156
53.62	0.151
53.84	10.129
54.06	1.318
54.28	11.318
54.5	14.116
54.72	14.304
54.94	13.22
55.16	10.116
55.38	3.993
55.6	13.684
55.82	7.555
56.04	5.486
56.26	6.475
56.48	11.292
56.7	5.218
56.92	12.135
57.14	18.991
57.36	22.232
57.58	46.354
57.8	17.946
58.02	11.898
58.24	5.063
58.46	5.157
58.68	1.395
58.9	4.239
59.12	13.363
59.34	11.521
59.56	8.248
59.78	15.417
60	3.413
60.22	4.406
60.44	4.403
60.66	21.632
60.88	9.178
61.1	19.451
61.32	7.313
61.54	9.196
61.76	15.787
61.98	5.109
62.2	1.173
62.42	1.409
62.64	3.629
62.86	5.82
63.08	11.761
63.3	8.621
63.52	9.455
63.74	13.632
63.96	4.844
64.18	1.824
64.4	0.63
64.62	3.787
64.84	6.645
65.06	1.126
65.28	2.709
65.5	7.128
65.72	1.381
65.94	4.656
66.16	1.775
66.38	21.948
66.6	6.108
66.82	9.395
67.04	15.797
67.26	1.352
67.48	11.299
67.7	0.562
67.92	7.139
68.14	19.801
68.36	10.589
68.58	10.202
68.8	0.551
69.02	2.152
69.24	4.822
69.46	5.462
69.68	10.082
69.9	6.64
70.12	3.761
70.34	10.751
70.56	18.275
70.78	2.212
71	3.058
71.22	5.755
71.44	6.073
71.66	7.238
71.88	8.552
72.1	0.556
72.32	7.566
72.54	12.864
72.76	2.157
72.98	8.798
73.2	9.111
73.42	2.189
73.64	3.278
73.86	8.102
74.08	6.442
74.3	1.75
74.52	5.374
74.74	7.443
74.96	0.461
75.18	2.037
75.4	15.911
75.62	8.579
75.84	6.492
76.06	7.409
76.28	3.34
76.5	2.104
76.72	8.318
76.94	8.445
77.16	6.741
77.38	9.647
77.6	9.847
77.82	0.104
78.04	0.451
78.26	3.852
78.48	5.043
78.7	8.566
78.92	3.649
79.14	3.63
79.36	2.553
79.58	5.517
79.8	4.534
80.02	4.51
80.24	10.285
80.46	7.234
80.68	7.177
80.9	7.128
81.12	9.768
81.34	1.532
81.56	5.277
81.78	6.07
82	3.801
82.22	5.72
82.44	7.686
82.66	6.703
82.88	11.61
83.1	8.563
83.32	11.88
83.54	6.065
83.76	3.492
83.98	5.684
84.2	4.942
84.42	0.657
84.64	9.331
84.86	15.389
85.08	0.318
85.3	4.315
85.52	6.526
85.74	0.145
85.96	5.871
86.18	7.901
86.4	10.772
86.62	1.758
86.84	7.433
87.06	5.608
87.28	11.682
87.5	2.689
87.72	5.738
87.94	3.607
88.16	3.615
88.38	8.749
88.6	2.797
88.82	7.061
89.04	4.126
89.26	2.092
89.48	1.422
89.7	3.197
89.92	4.913
