Measurement: Powder, Xray Data XY Processed
Mineral: Tantalite-(Fe)
Rruff sample: R070548
Ideal chemistry: Fe^2+^Ta^5+^_2_O_6_
Locality: Grizzly Bear Gulch, Black Hills, Custer County, South Dakota, USA
Source: James Shigley
Description: Submetallic dark grey fragments with parallel cleavage planes
Diffraction sample description: Powder
Cell parameters: a: 14.3502(7) b: 5.7519(2) c: 5.0997(3) alpha: 90 beta: 90 gamma: 90 volume: 420.93(2) crystal system: orthorhombic
x	intensity
5	0
5.22	14.6293
5.44	1.846
5.66	1.5741
5.88	2.2581
6.1	13.9635
6.32	18.3035
6.54	12.746
6.76	14.0741
6.98	17.2115
7.2	20.1511
7.42	5.73364
7.64	3.31411
7.86	4.52939
8.08	9.57716
8.3	2.03448
8.52	9.97158
8.74	12.4501
8.96	12.7163
9.18	11.6233
9.4	16.4082
9.62	4.55854
9.84	9.44834
10.06	1.70106
10.28	4.63303
10.5	9.14252
10.72	2.99018
10.94	5.9173
11.16	0.317318
11.38	13.46
11.6	4.57085
11.82	12.9102
12.04	25.922
12.26	20.6419
12.48	23.3598
12.7	10.4273
12.92	21.3691
13.14	16.2368
13.36	5.14453
13.58	10.0737
13.8	21.9547
14.02	0.488852
14.24	6.33333
14.46	0.670753
14.68	3.81699
14.9	3.27816
15.12	9.32929
15.34	21.3917
15.56	8.41589
15.78	14.6686
16	5.78411
16.22	10.3071
16.44	7.57909
16.66	32.4297
16.88	2.84681
17.1	7.58965
17.32	4.34658
17.54	6.29479
17.76	7.62219
17.98	7.63279
18.2	2.32898
18.42	7.5797
18.64	3.60706
18.86	5.42131
19.08	8.71634
19.3	13.4346
19.52	5.29337
19.74	17.7062
19.96	8.94264
20.18	9.71593
20.4	13.8063
20.62	9.98344
20.84	7.86535
21.06	20.9788
21.28	8.76388
21.5	2.33532
21.72	19.2064
21.94	7.74297
22.16	5.7078
22.38	4.91712
22.6	13.2139
22.82	17.6116
23.04	1.85071
23.26	5.97593
23.48	6.19496
23.7	24.7611
23.92	15.9006
24.14	138.929
24.36	65.9087
24.58	13.2206
24.8	39.742
25.02	2.14753
25.24	5.17342
25.46	11.6376
25.68	8.21594
25.9	11.642
26.12	0.139919
26.34	18.2522
26.56	3.03816
26.78	7.07383
27	24.3122
27.22	11.1343
27.44	2.34995
27.66	2.61892
27.88	0.308201
28.1	7.74349
28.32	1.21796
28.54	3.45286
28.76	8.2892
28.98	4.39494
29.2	12.4219
29.42	17.4932
29.64	17.8199
29.86	119.887
30.08	505.39
30.3	27.2412
30.52	3.40918
30.74	14.5961
30.96	16.4911
31.18	58.2656
31.4	12.5882
31.62	19.197
31.84	7.64144
32.06	7.93065
32.28	4.49151
32.5	0.094797
32.72	10.3613
32.94	15.848
33.16	23.1042
33.38	21.211
33.6	21.9985
33.82	2.66326
34.04	12.0804
34.26	13.7848
34.48	22.0021
34.7	7.69807
34.92	0.708414
35.14	47.0297
35.36	53.0233
35.58	5.15088
35.8	44.0972
36.02	37.4147
36.24	2.96104
36.46	3.70638
36.68	8.65901
36.9	0.79385
37.12	5.63618
37.34	11.1043
37.56	54.5159
37.78	25.8661
38	8.11968
38.22	15.3349
38.44	1.05808
38.66	17.5002
38.88	9.40614
39.1	8.28684
39.32	13.0685
39.54	10.826
39.76	5.47212
39.98	10.2136
40.2	17.147
40.42	8.07403
40.64	82.7126
40.86	15.6874
41.08	4.82236
41.3	12.9053
41.52	3.92597
41.74	12.0329
41.96	6.96744
42.18	0.294683
42.4	5.38166
42.62	4.86439
42.84	3.10533
43.06	21.992
43.28	63.5539
43.5	8.97372
43.72	13.1341
43.94	7.66772
44.16	13.7756
44.38	15.3423
44.6	6.70245
44.82	14.2894
45.04	5.84501
45.26	14.778
45.48	21.3249
45.7	8.5004
45.92	14.6138
46.14	0.602888
46.36	1.0891
46.58	11.5947
46.8	16.1298
47.02	21.8278
47.24	7.22448
47.46	10.0324
47.68	75.5049
47.9	27.9968
48.12	16.6651
48.34	10.509
48.56	10.9485
48.78	15.896
49	7.54018
49.22	1.89661
49.44	27.5883
49.66	128.14
49.88	6.23013
50.1	2.14815
50.32	16.4624
50.54	19.6906
50.76	13.6436
50.98	12.2485
51.2	34.4054
51.42	93.8806
51.64	10.7486
51.86	11.3851
52.08	4.14989
52.3	20.1307
52.52	86.568
52.74	30.3599
52.96	195.265
53.18	42.8391
53.4	5.76694
53.62	5.73133
53.84	14.7562
54.06	16.1204
54.28	5.39762
54.5	21.4624
54.72	14.0162
54.94	13.9755
55.16	4.173
55.38	9.8956
55.6	18.4743
55.82	12.9831
56.04	19.8765
56.26	0.795013
56.48	17.7662
56.7	11.9582
56.92	15.6235
57.14	19.4886
57.36	10.7591
57.58	3.46068
57.8	22.2308
58.02	3.37522
58.24	9.30429
58.46	11.2665
58.68	4.92352
58.9	13.1044
59.12	4.90438
59.34	11.7306
59.56	15.3539
59.78	19.632
60	65.2126
60.22	30.5491
60.44	10.1666
60.66	6.17075
60.88	5.32076
61.1	1.90743
61.32	8.76961
61.54	15.4498
61.76	2.93464
61.98	5.44292
62.2	59.4134
62.42	33.2657
62.64	12.302
62.86	1.246
63.08	70.1119
63.3	88.888
63.52	51.4629
63.74	113.535
63.96	56.4972
64.18	23.2534
64.4	3.05297
64.62	9.49254
64.84	6.56987
65.06	6.60938
65.28	13.1842
65.5	7.86195
65.72	4.02869
65.94	6.73908
66.16	15.4168
66.38	5.02387
66.6	7.81247
66.82	1.3599
67.04	11.9386
67.26	7.51395
67.48	11.9948
67.7	116.727
67.92	30.6716
68.14	9.88645
68.36	23.0549
68.58	2.70499
68.8	10.0041
69.02	20.2378
69.24	5.51573
69.46	7.72953
69.68	16.8473
69.9	2.43111
70.12	4.29845
70.34	7.17535
70.56	18.1236
70.78	23.193
71	7.24295
71.22	9.24538
71.44	21.3115
71.66	24.1159
71.88	7.42989
72.1	27.3812
72.32	6.75222
72.54	23.5128
72.76	6.82166
72.98	2.00466
73.2	5.85572
73.42	7.72885
73.64	0.945467
73.86	10.8691
74.08	1.7478
74.3	5.82672
74.52	10.8132
74.74	7.62978
74.96	6.43833
75.18	9.03566
75.4	2.7619
75.62	2.59675
75.84	0.696955
76.06	4.43295
76.28	30.2252
76.5	25.5318
76.72	23.1282
76.94	12.8711
77.16	2.82439
77.38	2.75113
77.6	14.4811
77.82	35.5383
78.04	43.3395
78.26	17.9659
78.48	2.52464
78.7	6.24463
78.92	25.1393
79.14	6.04591
79.36	3.06477
79.58	8.931
79.8	16.8613
80.02	75.2778
80.24	46.7241
80.46	21.6439
80.68	11.455
80.9	7.75756
81.12	7.1762
81.34	9.54012
81.56	7.95516
81.78	3.15818
82	14.3322
82.22	8.92793
82.44	12.9752
82.66	8.3969
82.88	13.6475
83.1	10.8565
83.32	11.8247
83.54	8.00561
83.76	22.1227
83.98	8.88217
84.2	5.687
84.42	10.2027
84.64	13.6956
84.86	17.5643
85.08	74.6072
85.3	31.941
85.52	2.29503
85.74	11.2014
85.96	2.59129
86.18	4.93767
86.4	13.8263
86.62	15.8691
86.84	9.64217
87.06	10.952
87.28	19.6629
87.5	11.9759
87.72	7.0761
87.94	15.1634
88.16	9.08673
88.38	69.91
88.6	33.2465
88.82	27.3673
89.04	3.15278
89.26	29.2829
89.48	21.8752
89.7	29.6871
89.92	10.1054
