Measurement: Powder, Xray Data XY Processed
Mineral: Tantalite-(Mn)
Rruff sample: R050600
Ideal chemistry: Mn^2+^Ta^5+^_2_O_6_
Locality: Shengus, Pakistan
Source: Wayne Thompson
Description: Black tabular crystal associated with white albite and colorless quartz
Diffraction sample description: Powder
Cell parameters: a: 14.3942(9) b: 5.7587(4) c: 5.0851(6) alpha: 90. beta: 90. gamma: 90. volume: 421.52(4) crystal system: orthorhombic
x	intensity
5	0
5.22	4.762
5.44	10.654
5.66	14.231
5.88	5.11
6.1	6.298
6.32	9.158
6.54	19.215
6.76	14.993
6.98	15.502
7.2	14.529
7.42	2.862
7.64	10.034
7.86	1.854
8.08	13.586
8.3	6.295
8.52	3.99
8.74	2.791
8.96	7.379
9.18	15.333
9.4	1.845
9.62	4.862
9.84	2.805
10.06	0.807
10.28	8.659
10.5	11.335
10.72	3.747
10.94	4.215
11.16	14.862
11.38	0.354
11.6	1.784
11.82	11.418
12.04	9.027
12.26	42.315
12.48	24.921
12.7	8.754
12.92	12.112
13.14	1.326
13.36	8.757
13.58	2.417
13.8	12.728
14.02	10.119
14.24	8.27
14.46	14.536
14.68	4.044
14.9	15.338
15.12	5.695
15.34	7.655
15.56	1.77
15.78	3.665
16	8.312
16.22	11.219
16.44	10.222
16.66	21.716
16.88	0.373
17.1	9.107
17.32	11.165
17.54	1.136
17.76	14.157
17.98	5.324
18.2	2.285
18.42	1.261
18.64	3.576
18.86	5.574
19.08	2.041
19.3	9.923
19.52	7.853
19.74	10.364
19.96	13.309
20.18	8.228
20.4	7.883
20.62	0.82
20.84	8.743
21.06	1.684
21.28	5.635
21.5	3.764
21.72	8.071
21.94	14.21
22.16	1.412
22.38	6.912
22.6	8.568
22.82	3.199
23.04	8.712
23.26	20.073
23.48	15.505
23.7	9.701
23.92	28.308
24.14	139.664
24.36	64.358
24.58	11.932
24.8	92.85
25.02	20.235
25.24	1.359
25.46	0.54
25.68	12.974
25.9	3.642
26.12	5.945
26.34	6.23
26.56	4.357
26.78	0.496
27	18.106
27.22	3.751
27.44	6.801
27.66	12.124
27.88	3.645
28.1	13.143
28.32	13.234
28.54	6.47
28.76	8.393
28.98	19.399
29.2	2.208
29.42	26.707
29.64	14.528
29.86	129.515
30.08	416.292
30.3	62.595
30.52	20.755
30.74	3.815
30.96	15.768
31.18	41.625
31.4	14.121
31.62	1.462
31.84	5.825
32.06	6.728
32.28	3.594
32.5	3.323
32.72	4.857
32.94	0.123
33.16	5.174
33.38	4.771
33.6	12.984
33.82	2.215
34.04	11.95
34.26	10.069
34.48	10.817
34.7	5.504
34.92	5.21
35.14	19.963
35.36	47.309
35.58	26.227
35.8	42.165
36.02	58.141
36.24	16.178
36.46	2.972
36.68	8.134
36.9	5.656
37.12	10.503
37.34	17.204
37.56	79.601
37.78	22.881
38	14.211
38.22	12.856
38.44	12.563
38.66	11.838
38.88	8.802
39.1	4.841
39.32	10.777
39.54	1.732
39.76	7.349
39.98	6.302
40.2	26.098
40.42	14.115
40.64	7.293
40.86	6.713
41.08	4.25
41.3	0.906
41.52	3.405
41.74	2.737
41.96	11.132
42.18	11.984
42.4	0.823
42.62	11.25
42.84	5.979
43.06	15.798
43.28	27.223
43.5	16.806
43.72	14.502
43.94	10.93
44.16	16.102
44.38	8.037
44.6	4.032
44.82	7.312
45.04	12.63
45.26	10.69
45.48	4.949
45.7	11.066
45.92	8.831
46.14	18.105
46.36	3.285
46.58	6.768
46.8	3.484
47.02	8.452
47.24	4.623
47.46	10.491
47.68	18.654
47.9	14.145
48.12	11.064
48.34	4.931
48.56	0.812
48.78	7.975
49	4.511
49.22	14.608
49.44	29.069
49.66	21.456
49.88	9.513
50.1	8.868
50.32	11.317
50.54	15.388
50.76	10.483
50.98	6.908
51.2	47.154
51.42	35.798
51.64	11.909
51.86	8.748
52.08	3.227
52.3	15.377
52.52	80.972
52.74	60.621
52.96	82.736
53.18	29.68
53.4	2.571
53.62	2.424
53.84	0.412
54.06	5.765
54.28	13.514
54.5	8.412
54.72	8.296
54.94	6.886
55.16	13.038
55.38	8.923
55.6	8.189
55.82	3.259
56.04	0.599
56.26	12.289
56.48	11.185
56.7	3.259
56.92	3.035
57.14	4.013
57.36	11.911
57.58	6.99
57.8	4.403
58.02	8.849
58.24	18.388
58.46	18.26
58.68	3.08
58.9	5.895
59.12	1.716
59.34	1.51
59.56	11.838
59.78	8.701
60	26.817
60.22	33.424
60.44	9.397
60.66	12.671
60.88	8.179
61.1	11.705
61.32	14.112
61.54	3.525
61.76	13.812
61.98	2.901
62.2	20.81
62.42	12.479
62.64	3.35
62.86	4.532
63.08	59.535
63.3	26.862
63.52	14.894
63.74	53.091
63.96	34.026
64.18	12.302
64.4	10.245
64.62	4.956
64.84	12.534
65.06	8.863
65.28	11.909
65.5	2.093
65.72	7.507
65.94	3.289
66.16	6.919
66.38	9.669
66.6	10.1
66.82	4.492
67.04	2.41
67.26	0.283
67.48	19.369
67.7	15.174
67.92	8.118
68.14	10.148
68.36	3.96
68.58	12.896
68.8	5.243
69.02	17.721
69.24	13.059
69.46	7.194
69.68	10.213
69.9	15.028
70.12	9.109
70.34	9.302
70.56	0.603
70.78	7.549
71	0.873
71.22	5.702
71.44	7.508
71.66	17.422
71.88	20.74
72.1	17.545
72.32	8.536
72.54	3.371
72.76	10.377
72.98	14.719
73.2	7.22
73.42	8.113
73.64	5.855
73.86	14.855
74.08	1.332
74.3	8.657
74.52	2.428
74.74	14.284
74.96	1.84
75.18	7.822
75.4	6.191
75.62	4.943
75.84	9.974
76.06	7.006
76.28	20.734
76.5	1.355
76.72	9.108
76.94	0.029
77.16	15.043
77.38	13.428
77.6	29.2
77.82	17.389
78.04	19.167
78.26	5.414
78.48	21.31
78.7	7.245
78.92	0.268
79.14	14.218
79.36	21.069
79.58	12.887
79.8	21.89
80.02	42.483
80.24	23.179
80.46	5.857
80.68	12.737
80.9	1.272
81.12	17.46
81.34	12.613
81.56	5.83
81.78	0.189
82	8.431
82.22	3.117
82.44	11.033
82.66	7.658
82.88	10.748
83.1	4.527
83.32	15.99
83.54	10.76
83.76	21.222
83.98	7.026
84.2	1.722
84.42	6.555
84.64	9.823
84.86	6.83
85.08	23.091
85.3	9.002
85.52	13.273
85.74	9.121
85.96	4.911
86.18	15.638
86.4	4.467
86.62	22.342
86.84	15.051
87.06	20.673
87.28	4.213
87.5	11.026
87.72	2.338
87.94	10.45
88.16	6.44
88.38	18.835
88.6	15.581
88.82	15.921
89.04	0.733
89.26	13.589
89.48	1.767
89.7	23.311
89.92	10.696
