Measurement: Powder, Xray Data XY Processed
Mineral: Taranakite
Rruff sample: R140802
Ideal chemistry: K_3_Al_5_(PO_3_OH)_6_(PO_4_)_2_18H_2_O
Locality: Parwan lava caves, Bacchus Marsh, Victoria, Australia
Source: Rock Currier
Description: Tan, fine-grained, massive
Diffraction sample description: Powder
Cell parameters: a: 8.6972(8) b: 8.6972(8) c: 95.05(3) alpha: 90 beta: 90 gamma: 120 volume: 6220(2) crystal system: hexagonal
x	intensity
5	0
5.22	50.654
5.44	11.8499
5.66	93.2757
5.88	152.376
6.1	42.1455
6.32	23.1049
6.54	34.2465
6.76	51.7579
6.98	25.1574
7.2	11.8151
7.42	38.2561
7.64	13.6889
7.86	4.67741
8.08	4.35731
8.3	26.5547
8.52	16.8959
8.74	84.0979
8.96	10.5093
9.18	22.8861
9.4	21.4088
9.62	0.548386
9.84	34.1981
10.06	15.6952
10.28	24.3026
10.5	18.4329
10.72	24.3513
10.94	1.84236
11.16	33.8107
11.38	78.3731
11.6	28.2602
11.82	9.6891
12.04	37.2784
12.26	21.0431
12.48	23.8734
12.7	5.37895
12.92	7.28198
13.14	15.7837
13.36	4.53435
13.58	0.347313
13.8	5.98333
14.02	14.5608
14.24	15.9945
14.46	21.3152
14.68	13.2761
14.9	9.02824
15.12	44.9416
15.34	25.9074
15.56	32.1305
15.78	1.9137
16	29.6118
16.22	27.4743
16.44	27.4644
16.66	11.7708
16.88	9.70089
17.1	20.6079
17.32	17.1181
17.54	10.0791
17.76	12.1516
17.98	24.5003
18.2	13.969
18.42	18.0781
18.64	0.205414
18.86	14.2069
19.08	5.53462
19.3	29.6387
19.52	16.84
19.74	14.0352
19.96	2.10748
20.18	11.3429
20.4	14.2155
20.62	26.3104
20.84	29.3658
21.06	19.8536
21.28	11.9085
21.5	14.0678
21.72	16.388
21.94	19.8213
22.16	23.3193
22.38	32.0743
22.6	3.34846
22.82	11.1387
23.04	5.36684
23.26	0.936783
23.48	35.6769
23.7	37.8448
23.92	50.709
24.14	30.1121
24.36	2.75137
24.58	1.02086
24.8	17.4173
25.02	49.0122
25.24	18.9674
25.46	14.4065
25.68	10.8761
25.9	51.7802
26.12	12.2066
26.34	9.53001
26.56	5.10508
26.78	43.5677
27	37.7156
27.22	36.5463
27.44	21.2109
27.66	22.6096
27.88	9.44849
28.1	8.72802
28.32	33.4477
28.54	20.925
28.76	68.4554
28.98	30.2004
29.2	13.5777
29.42	9.00963
29.64	17.1862
29.86	3.5313
30.08	14.5096
30.3	17.4344
30.52	35.178
30.74	24.743
30.96	7.5674
31.18	5.03052
31.4	24.4249
31.62	17.0754
31.84	27.1976
32.06	42.5687
32.28	21.8594
32.5	24.0022
32.72	4.72875
32.94	20.4592
33.16	9.53355
33.38	8.6942
33.6	7.87506
33.82	16.9394
34.04	10.8948
34.26	35.9744
34.48	40.7881
34.7	12.8596
34.92	30.4792
35.14	21.8999
35.36	2.62164
35.58	8.27793
35.8	19.8666
36.02	22.6872
36.24	29.3559
36.46	20.8712
36.68	2.09317
36.9	17.8884
37.12	17.0429
37.34	10.3554
37.56	10.5121
37.78	25.831
38	14.1899
38.22	13.7645
38.44	1.60318
38.66	4.76143
38.88	7.32719
39.1	5.81745
39.32	14.9846
39.54	4.64138
39.76	3.82089
39.98	18.1927
40.2	9.60329
40.42	7.44437
40.64	17.9602
40.86	21.5274
41.08	16.4151
41.3	15.1837
41.52	4.89091
41.74	6.02473
41.96	12.5984
42.18	3.6476
42.4	18.8682
42.62	10.7575
42.84	12.823
43.06	6.73574
43.28	10.7545
43.5	2.79518
43.72	20.0912
43.94	19.6759
44.16	32.1159
44.38	11.7792
44.6	11.0752
44.82	13.5492
45.04	5.5784
45.26	14.1631
45.48	18.5986
45.7	13.14
45.92	17.9389
46.14	24.5808
46.36	31.4986
46.58	21.9167
46.8	11.1492
47.02	6.98634
47.24	21.117
47.46	8.5349
47.68	19.4296
47.9	21.4069
48.12	20.1074
48.34	11.114
48.56	12.1282
48.78	12.1218
49	17.7479
49.22	21.6341
49.44	16.9566
49.66	9.44691
49.88	3.22933
50.1	12.6122
50.32	20.2236
50.54	19.8037
50.76	5.4724
50.98	16.8878
51.2	17.7461
51.42	4.77032
51.64	7.66527
51.86	14.4638
52.08	16.3579
52.3	12.6248
52.52	20.6676
52.74	25.5191
52.96	24.4188
53.18	22.9115
53.4	22.8225
53.62	10.6935
53.84	14.327
54.06	13.1431
54.28	12.684
54.5	22.5116
54.72	17.4773
54.94	4.16919
55.16	21.7368
55.38	18.8654
55.6	5.94235
55.82	2.5549
56.04	29.9971
56.26	1.38814
56.48	8.61567
56.7	27.4624
56.92	12.1284
57.14	20.1613
57.36	15.1152
57.58	38.375
57.8	19.3244
58.02	13.6032
58.24	20.5879
58.46	20.0103
58.68	13.0978
58.9	6.42421
59.12	4.64901
59.34	8.39594
59.56	13.9858
59.78	15.5855
60	13.9921
60.22	12.1557
60.44	11.5032
60.66	14.9259
60.88	5.606
61.1	2.07952
61.32	9.17753
61.54	0.886543
61.76	16.1024
61.98	6.4838
62.2	13.0846
62.42	6.02411
62.64	11.148
62.86	9.0647
63.08	8.7301
63.3	12.6764
63.52	8.5574
63.74	7.30433
63.96	15.1838
64.18	10.0627
64.4	7.1735
64.62	13.7481
64.84	9.6126
65.06	8.71468
65.28	12.8442
65.5	14.2497
65.72	16.8316
65.94	22.6176
66.16	5.33819
66.38	6.00311
66.6	13.1445
66.82	8.10088
67.04	15.5879
67.26	6.87891
67.48	13.6083
67.7	9.89302
67.92	12.4698
68.14	14.5193
68.36	11.0654
68.58	11.6447
68.8	9.20586
69.02	23.7511
69.24	12.7353
69.46	7.75946
69.68	13.6442
69.9	17.404
70.12	14.692
70.34	16.5203
70.56	15.4672
70.78	2.80423
71	9.98741
71.22	3.36476
71.44	8.06322
71.66	14.1101
71.88	13.9921
72.1	24.7414
72.32	10.3391
72.54	14.7055
72.76	4.41904
72.98	10.0987
73.2	10.4071
73.42	13.6428
73.64	13.8283
73.86	17.995
74.08	0.901154
74.3	15.3756
74.52	8.92137
74.74	6.69445
74.96	9.53978
75.18	9.46986
75.4	3.01883
75.62	8.12608
75.84	15.3059
76.06	19.5975
76.28	18.5316
76.5	8.57643
76.72	2.76432
76.94	19.5674
77.16	21.4944
77.38	16.5305
77.6	10.5502
77.82	16.1694
78.04	12.6601
78.26	13.3514
78.48	25.1032
78.7	6.90907
78.92	0.25613
79.14	13.6393
79.36	5.81689
79.58	3.71574
79.8	13.7174
80.02	5.78852
80.24	11.7504
80.46	17.5996
80.68	2.93852
80.9	9.13456
81.12	25.7759
81.34	22.8693
81.56	24.1189
81.78	4.1703
82	17.6175
82.22	14.8792
82.44	9.62119
82.66	20.2422
82.88	10.0052
83.1	14.0314
83.32	4.11864
83.54	8.93072
83.76	14.608
83.98	7.64741
84.2	14.3608
84.42	9.24477
84.64	8.0607
84.86	11.9402
85.08	8.9589
85.3	3.09507
85.52	14.8826
85.74	13.6984
85.96	1.88485
86.18	0.787235
86.4	4.5433
86.62	0.787254
86.84	5.2347
87.06	0.711754
87.28	12.122
87.5	7.53285
87.72	16.8159
87.94	16.3379
88.16	13.9293
88.38	10.291
88.6	10.3901
88.82	1.0371
89.04	12.4511
89.26	9.61766
89.48	2.06682
89.7	1.31397
89.92	10.6937
