Measurement: Powder, Xray Data XY Processed
Mineral: Tarbuttite
Rruff sample: R050621
Ideal chemistry: Zn^2+^_2_(P^5+^O_4_)(OH)
Locality: Broken Hill, Rhodesia
Source: University of Arizona Mineral Museum
Description: Colorless prismatic crystals
Diffraction sample description: Powder
Measured chemistry: Zn_2.00_(P_1.00_O_4_)(OH)
Cell parameters: a: 5.5542(3) b: 5.6990(3) c: 6.4727(2) alpha: 102.672(4) beta: 102.805(4) gamma: 86.906(5) volume: 194.92(1) crystal system: triclinic
x	intensity
5	0
5.22	6.635
5.44	4.56
5.66	10.243
5.88	9.358
6.1	13.723
6.32	5.332
6.54	4.938
6.76	5.295
6.98	2.643
7.2	4.848
7.42	4.295
7.64	4.125
7.86	4.942
8.08	3.423
8.3	0.247
8.52	5.991
8.74	2.467
8.96	7.623
9.18	5.787
9.4	14.063
9.62	7.365
9.84	7.478
10.06	9.088
10.28	3.949
10.5	2.094
10.72	4.214
10.94	6.141
11.16	4.185
11.38	14.461
11.6	2.518
11.82	6.421
12.04	6.161
12.26	5.28
12.48	1.176
12.7	7.654
12.92	14.363
13.14	7.006
13.36	0.638
13.58	10.327
13.8	1.855
14.02	7.619
14.24	19.497
14.46	1127.48
14.68	21.314
14.9	15.801
15.12	3.771
15.34	2.789
15.56	1.872
15.78	5.968
16	6.351
16.22	11.562
16.44	113.954
16.66	12.438
16.88	3.383
17.1	0.275
17.32	3.822
17.54	2.028
17.76	5.105
17.98	4.154
18.2	3.2
18.42	2.021
18.64	7.787
18.86	8.679
19.08	8.543
19.3	8.708
19.52	17.77
19.74	2.323
19.96	4.84
20.18	12.119
20.4	4.342
20.62	4.506
20.84	1.662
21.06	1.021
21.28	10.204
21.5	3.236
21.72	0.295
21.94	3.229
22.16	3.133
22.38	0.061
22.6	3.648
22.82	2.415
23.04	16.225
23.26	9.035
23.48	3.756
23.7	2.615
23.92	13.628
24.14	403.484
24.36	31.526
24.58	3.786
24.8	0.41
25.02	1.392
25.24	0.282
25.46	3.768
25.68	1.999
25.9	6.143
26.12	3.914
26.34	8.49
26.56	6.311
26.78	2.336
27	4.946
27.22	18.844
27.44	64.342
27.66	8.603
27.88	4.439
28.1	2.027
28.32	5.994
28.54	3.502
28.76	2.176
28.98	49.701
29.2	7.011
29.42	4.563
29.64	9.67
29.86	2.668
30.08	128.726
30.3	20.219
30.52	3.295
30.74	88.033
30.96	16.294
31.18	219.138
31.4	16.175
31.62	7.433
31.84	4.726
32.06	20.94
32.28	305.44
32.5	25.951
32.72	4.67
32.94	9.139
33.16	45.03
33.38	8.768
33.6	6.64
33.82	5.97
34.04	3.36
34.26	2.091
34.48	9.816
34.7	0.383
34.92	11.11
35.14	8.068
35.36	12.656
35.58	92.722
35.8	4.551
36.02	6.187
36.24	64.548
36.46	31.581
36.68	40.725
36.9	27.575
37.12	69.637
37.34	75.71
37.56	36.289
37.78	3.006
38	0.027
38.22	27
38.44	30.123
38.66	8.016
38.88	5.991
39.1	3.295
39.32	3.438
39.54	10.903
39.76	4.317
39.98	3.821
40.2	0.228
40.42	6.538
40.64	29.45
40.86	5.052
41.08	3.36
41.3	0.478
41.52	7.985
41.74	7.717
41.96	1.651
42.18	3.806
42.4	4.252
42.62	11.42
42.84	6.567
43.06	24.858
43.28	19.587
43.5	0.01
43.72	13.321
43.94	11.169
44.16	170.118
44.38	11.552
44.6	6.624
44.82	3.896
45.04	20.042
45.26	1.692
45.48	6.369
45.7	9.977
45.92	1.266
46.14	1.051
46.36	1.335
46.58	8.88
46.8	14.656
47.02	15.483
47.24	13.608
47.46	13.116
47.68	5.863
47.9	6.534
48.12	7.149
48.34	0.747
48.56	2.097
48.78	1.979
49	1.277
49.22	73.678
49.44	27.455
49.66	16.046
49.88	5.893
50.1	16.408
50.32	0.862
50.54	20.577
50.76	25.985
50.98	15.267
51.2	0.757
51.42	0.572
51.64	8.49
51.86	8.996
52.08	10.896
52.3	7.788
52.52	46.286
52.74	16.816
52.96	0.169
53.18	4.923
53.4	9.979
53.62	28.923
53.84	35.195
54.06	9.515
54.28	22.124
54.5	10.47
54.72	3.596
54.94	1.791
55.16	4.939
55.38	0.844
55.6	3.912
55.82	1.393
56.04	5.319
56.26	11.717
56.48	10.143
56.7	10.671
56.92	4.353
57.14	5.531
57.36	28.334
57.58	12.09
57.8	50.481
58.02	11.842
58.24	0.958
58.46	7.181
58.68	23.834
58.9	3.428
59.12	4.822
59.34	5.267
59.56	5.775
59.78	1.961
60	85.065
60.22	22.326
60.44	10.561
60.66	11.782
60.88	6.277
61.1	8.437
61.32	3.827
61.54	28.884
61.76	19.405
61.98	25.191
62.2	20.676
62.42	29.012
62.64	6.155
62.86	3.189
63.08	10.186
63.3	4.421
63.52	7.855
63.74	14.137
63.96	12.858
64.18	12.078
64.4	6.221
64.62	33.669
64.84	10.431
65.06	3.935
65.28	7.459
65.5	3.911
65.72	0.763
65.94	4.001
66.16	5.692
66.38	5.465
66.6	10.207
66.82	3.233
67.04	8.98
67.26	10.07
67.48	38.381
67.7	18.576
67.92	5.802
68.14	2.063
68.36	9.37
68.58	3.8
68.8	10.517
69.02	9.318
69.24	14.753
69.46	1.189
69.68	11.625
69.9	8.015
70.12	4.634
70.34	13.98
70.56	7.248
70.78	12.401
71	10.503
71.22	7.194
71.44	0.257
71.66	5.419
71.88	9.162
72.1	4.875
72.32	12.667
72.54	13.141
72.76	6.883
72.98	0.332
73.2	5.581
73.42	4.845
73.64	18.24
73.86	11.219
74.08	1.218
74.3	1.102
74.52	0.038
74.74	1.808
74.96	3.862
75.18	12.071
75.4	12.085
75.62	17.943
75.84	7.193
76.06	5.972
76.28	4.96
76.5	7.98
76.72	6.213
76.94	13.476
77.16	6.048
77.38	18.223
77.6	24.347
77.82	1.464
78.04	6.881
78.26	6.277
78.48	6.629
78.7	5.191
78.92	2.307
79.14	4.438
79.36	1.6
79.58	6.275
79.8	2.264
80.02	12.522
80.24	5.543
80.46	6.522
80.68	10.467
80.9	7.922
81.12	9.679
81.34	6.625
81.56	11.483
81.78	0.368
82	8.291
82.22	7.209
82.44	3.765
82.66	5.215
82.88	13.199
83.1	10.846
83.32	6.42
83.54	4.417
83.76	6.431
83.98	6.625
84.2	8.663
84.42	1.124
84.64	4.132
84.86	4.199
85.08	7.773
85.3	1.758
85.52	1.02
85.74	1.032
85.96	11.314
86.18	2.656
86.4	6.638
86.62	9.76
86.84	6.92
87.06	7.957
87.28	7.446
87.5	2.617
87.72	7.782
87.94	12.87
88.16	14.163
88.38	9.125
88.6	9.08
88.82	8.973
89.04	12.03
89.26	10.595
89.48	1.734
89.7	1.006
89.92	2.365
