Measurement: Powder, Xray Data XY Processed
Mineral: Teallite
Rruff sample: R050434
Ideal chemistry: PbSnS_2_
Locality: Carhuaycollo, Carguaicollo District, Potosi, Bolivia
Source: University of Arizona Mineral Museum
Description: Grayish black massive aggregate of thin folia with warped and bent crystals
Diffraction sample description: Powder
Measured chemistry: (Pb_0.71_Sn_1.29_)_Î£=2_S_2.00_
Cell parameters: a: 11.3589(9) b: 4.0640(8) c: 4.2744(6) alpha: 90. beta: 90. gamma: 90. volume: 197.32(3) crystal system: orthorhombic
x	intensity
5	0
5.22	8.39126
5.44	0.334549
5.66	0.584017
5.88	7.3577
6.1	10.2281
6.32	9.33785
6.54	2.7193
6.76	16.6867
6.98	7.56415
7.2	14.6972
7.42	9.95891
7.64	0.383573
7.86	3.0078
8.08	5.20699
8.3	9.49789
8.52	6.74843
8.74	8.98504
8.96	1.8358
9.18	1.97831
9.4	3.11918
9.62	1.53941
9.84	3.46959
10.06	5.25988
10.28	1.89023
10.5	2.9466
10.72	8.01424
10.94	1.17097
11.16	5.38839
11.38	4.47274
11.6	5.4731
11.82	1.7222
12.04	3.73127
12.26	1.12192
12.48	4.97319
12.7	2.01587
12.92	1.8782
13.14	4.12179
13.36	4.95451
13.58	7.96628
13.8	6.91879
14.02	1.1284
14.24	2.63102
14.46	6.33224
14.68	8.52268
14.9	8.63189
15.12	2.62887
15.34	8.73352
15.56	4.78675
15.78	2.86764
16	9.69939
16.22	2.80438
16.44	2.15154
16.66	6.18024
16.88	2.26982
17.1	3.2238
17.32	7.03406
17.54	6.15114
17.76	6.06617
17.98	3.14784
18.2	0.114882
18.42	6.08973
18.64	8.88159
18.86	4.59144
19.08	8.54821
19.3	5.23363
19.52	3.29716
19.74	4.26569
19.96	8.04086
20.18	6.86908
20.4	3.63065
20.62	1.40649
20.84	5.24827
21.06	5.03417
21.28	5.9041
21.5	0.753694
21.72	4.68393
21.94	17.5439
22.16	48.5978
22.38	7.62788
22.6	7.58609
22.82	6.56119
23.04	6.62276
23.26	6.64696
23.48	7.82216
23.7	3.11601
23.92	2.34102
24.14	2.48311
24.36	11.0568
24.58	0.47417
24.8	3.95458
25.02	0.312396
25.24	1.67119
25.46	5.9461
25.68	6.3312
25.9	41.6048
26.12	90.7813
26.34	13.0853
26.56	13.6325
26.78	21.0384
27	125.523
27.22	27.8127
27.44	3.39652
27.66	1.14323
27.88	2.24063
28.1	3.78615
28.32	9.50943
28.54	7.16547
28.76	4.61793
28.98	0.61506
29.2	0.281645
29.42	2.87666
29.64	11.267
29.86	2.29005
30.08	13.144
30.3	51.8696
30.52	36.0963
30.74	4.20114
30.96	5.51897
31.18	39.7259
31.4	371.551
31.62	383.235
31.84	20.737
32.06	13.4531
32.28	9.25218
32.5	4.34908
32.72	2.31133
32.94	9.11635
33.16	0.177193
33.38	5.30631
33.6	6.77808
33.82	5.38274
34.04	7.4034
34.26	5.92354
34.48	3.45618
34.7	5.70144
34.92	7.71611
35.14	0.006218
35.36	3.23978
35.58	3.50212
35.8	6.14476
36.02	6.57098
36.24	10.7153
36.46	2.83646
36.68	4.44142
36.9	0.254781
37.12	10.0147
37.34	10.7457
37.56	0.705559
37.78	6.96908
38	3.66151
38.22	7.15911
38.44	12.7515
38.66	82.6881
38.88	44.0347
39.1	6.97328
39.32	4.148
39.54	3.45563
39.76	11.6969
39.98	1.9901
40.2	1.43704
40.42	5.96763
40.64	7.1324
40.86	7.11943
41.08	7.12973
41.3	5.52287
41.52	0.747857
41.74	2.0943
41.96	10.3622
42.18	3.86203
42.4	4.2816
42.62	8.8372
42.84	4.15894
43.06	27.4376
43.28	9.0046
43.5	9.50956
43.72	3.20455
43.94	4.01845
44.16	23.9458
44.38	54.0581
44.6	20.5386
44.82	6.84255
45.04	25.4034
45.26	34.0796
45.48	6.73096
45.7	3.3412
45.92	13.0976
46.14	7.66895
46.36	0.068339
46.58	3.39202
46.8	3.5129
47.02	0.359977
47.24	1.30393
47.46	0.198184
47.68	9.20634
47.9	1.91031
48.12	2.66959
48.34	5.3466
48.56	13.1736
48.78	20.5981
49	16.4458
49.22	7.47965
49.44	3.40375
49.66	3.23969
49.88	8.16782
50.1	6.99874
50.32	13.0847
50.54	27.2615
50.76	57.8092
50.98	12.7535
51.2	2.07735
51.42	5.5668
51.64	1.01608
51.86	9.56137
52.08	6.10317
52.3	9.64984
52.52	13.3174
52.74	30.025
52.96	27.6417
53.18	17.3852
53.4	56.1578
53.62	13.4873
53.84	5.81342
54.06	3.37851
54.28	7.01119
54.5	3.63234
54.72	2.32478
54.94	4.02694
55.16	9.26126
55.38	3.96808
55.6	21.4337
55.82	15.0191
56.04	4.13611
56.26	8.87435
56.48	5.05917
56.7	4.26569
56.92	3.44308
57.14	2.84714
57.36	1.97714
57.58	5.01001
57.8	3.10349
58.02	5.11865
58.24	0.04007
58.46	1.81773
58.68	4.98986
58.9	2.98663
59.12	14.9664
59.34	10.04
59.56	4.85379
59.78	0.794265
60	3.78625
60.22	0.655088
60.44	4.74048
60.66	4.78606
60.88	6.72117
61.1	4.66766
61.32	0.578389
61.54	0.447057
61.76	7.23249
61.98	8.09995
62.2	3.89395
62.42	1.80762
62.64	3.57199
62.86	4.2318
63.08	3.91166
63.3	8.65787
63.52	1.97922
63.74	8.76644
63.96	16.5278
64.18	8.44174
64.4	7.25034
64.62	3.26533
64.84	4.16092
65.06	13.243
65.28	14.6466
65.5	35.1407
65.72	75.2739
65.94	34.3995
66.16	16.8046
66.38	6.14708
66.6	2.325
66.82	5.42258
67.04	2.46526
67.26	6.48677
67.48	3.49123
67.7	5.1773
67.92	4.87189
68.14	0.527917
68.36	7.53331
68.58	0.250129
68.8	1.0158
69.02	2.89828
69.24	0.812389
69.46	6.15254
69.68	10.2288
69.9	10.3049
70.12	13.0911
70.34	8.14232
70.56	1.19023
70.78	4.82072
71	5.08401
71.22	7.33952
71.44	11.5974
71.66	4.60428
71.88	9.15464
72.1	1.97872
72.32	1.76984
72.54	1.62366
72.76	2.61406
72.98	11.539
73.2	11.5366
73.42	1.34389
73.64	9.4077
73.86	8.56485
74.08	18.8228
74.3	10.18
74.52	6.54804
74.74	2.04003
74.96	3.51772
75.18	10.2132
75.4	0.465444
75.62	3.81871
75.84	7.05415
76.06	4.73618
76.28	5.46212
76.5	8.50905
76.72	2.22086
76.94	1.96228
77.16	11.4984
77.38	3.9862
77.6	1.20442
77.82	4.90717
78.04	11.4978
78.26	0.189367
78.48	5.26852
78.7	8.40608
78.92	24.3084
79.14	8.62695
79.36	7.2014
79.58	0.409791
79.8	2.9765
80.02	8.26018
80.24	0.631413
80.46	1.9358
80.68	5.12272
80.9	3.13288
81.12	3.20071
81.34	9.09449
81.56	3.72139
81.78	2.13462
82	4.99566
82.22	1.78469
82.44	9.64605
82.66	5.61878
82.88	8.63092
83.1	22.1853
83.32	17.0964
83.54	8.9453
83.76	5.03432
83.98	4.16896
84.2	1.24945
84.42	3.5756
84.64	8.60346
84.86	6.56444
85.08	0.248058
85.3	4.63621
85.52	2.15612
85.74	5.30375
85.96	0.630288
86.18	0.487338
86.4	5.6794
86.62	2.79927
86.84	8.58835
87.06	5.23727
87.28	2.52297
87.5	4.32132
87.72	3.02268
87.94	4.72864
88.16	9.12288
88.38	9.44979
88.6	3.65906
88.82	0.867334
89.04	7.18021
89.26	6.99018
89.48	4.87747
89.7	7.81185
89.92	0.33567
