Measurement: Powder, Xray Data XY Processed
Mineral: Tellurium
Rruff sample: R070376
Ideal chemistry: Te
Locality: North of Bennett Lake, Rainy River District, Ontario, Canada
Source: Royal Ontario Museum
Description: Steel gray metallic fragment
Diffraction sample description: Powder
Measured chemistry: Te
Cell parameters: a: 4.4576(2) b: 4.4576(2) c: 5.9227(3) alpha: 90 beta: 90 gamma: 120 volume: 101.920(9) crystal system: hexagonal
x	intensity
5	0
5.22	9.39759
5.44	6.21903
5.66	9.87627
5.88	8.73993
6.1	7.7737
6.32	7.94855
6.54	6.46588
6.76	8.0158
6.98	3.56674
7.2	2.00049
7.42	7.38116
7.64	8.02496
7.86	6.24392
8.08	5.13512
8.3	5.12383
8.52	1.12055
8.74	6.90871
8.96	7.07019
9.18	1.12154
9.4	5.28829
9.62	6.44065
9.84	3.53654
10.06	1.40506
10.28	2.5214
10.5	4.69423
10.72	5.82018
10.94	3.09038
11.16	4.28273
11.38	3.24472
11.6	3.5484
11.82	3.62825
12.04	1.66706
12.26	2.76252
12.48	0.72472
12.7	5.87977
12.92	8.06439
13.14	7.19906
13.36	1.08497
13.58	3.07759
13.8	5.09811
14.02	3.03744
14.24	4.03151
14.46	3.19871
14.68	6.18508
14.9	8.23927
15.12	5.09338
15.34	2.87767
15.56	5.88461
15.78	4.05805
16	2.97567
16.22	3.88648
16.44	2.83845
16.66	1.7845
16.88	0.334565
17.1	0.257741
17.32	2.61964
17.54	2.57396
17.76	4.49514
17.98	4.5753
18.2	5.40144
18.42	6.38165
18.64	6.35458
18.86	0.408924
19.08	4.39775
19.3	2.41943
19.52	2.3674
19.74	0.290833
19.96	2.95019
20.18	5.02569
20.4	6.28511
20.62	3.26008
20.84	5.17314
21.06	4.12139
21.28	4.95714
21.5	7.76624
21.72	5.46157
21.94	6.21316
22.16	0.35088
22.38	6.35111
22.6	1.28796
22.82	6.89067
23.04	56.794
23.26	13.0842
23.48	5.15539
23.7	8.37221
23.92	0.452352
24.14	6.01451
24.36	5.25277
24.58	4.49313
24.8	6.74526
25.02	3.82742
25.24	0.139894
25.46	6.17708
25.68	1.67188
25.9	0.690107
26.12	5.82036
26.34	3.36345
26.56	1.61775
26.78	3.10519
27	8.59788
27.22	27.0761
27.44	97.9987
27.66	508.443
27.88	57.5259
28.1	20.8681
28.32	4.08439
28.54	3.74903
28.76	2.11637
28.98	1.70018
29.2	0.139283
29.42	1.68607
29.64	2.16418
29.86	6.24245
30.08	5.49888
30.3	8.6771
30.52	1.60947
30.74	3.84954
30.96	9.63912
31.18	4.87615
31.4	2.98119
31.62	5.07854
31.84	10.082
32.06	2.2312
32.28	1.30001
32.5	1.39149
32.72	7.3652
32.94	15.4034
33.16	6.33615
33.38	7.31427
33.6	4.05854
33.82	2.96791
34.04	1.99812
34.26	5.01457
34.48	1.94795
34.7	3.95487
34.92	2.96922
35.14	1.93394
35.36	2.84863
35.58	5.18932
35.8	4.06384
36.02	1.07535
36.24	7.2581
36.46	10.9318
36.68	3.45379
36.9	0.918555
37.12	2.37672
37.34	9.85823
37.56	8.38662
37.78	8.15346
38	24.4408
38.22	74.2046
38.44	123.189
38.66	26.8367
38.88	13.6612
39.1	5.55028
39.32	2.50989
39.54	2.54514
39.76	10.6099
39.98	6.72911
40.2	18.7505
40.42	57.0073
40.64	53.3927
40.86	21.6261
41.08	0.703236
41.3	7.08683
41.52	5.31731
41.74	2.54092
41.96	4.65825
42.18	5.74622
42.4	1.81501
42.62	3.82012
42.84	7.7702
43.06	6.3112
43.28	14.3926
43.5	32.5828
43.72	14.8865
43.94	10.0078
44.16	2.2572
44.38	5.67983
44.6	6.84121
44.82	3.94945
45.04	3.00776
45.26	0.008753
45.48	0.910578
45.7	5.05204
45.92	25.8276
46.14	28.3889
46.36	12.4573
46.58	3.31342
46.8	4.07613
47.02	9.45375
47.24	7.54739
47.46	3.99234
47.68	7.11261
47.9	1.90743
48.12	3.66379
48.34	3.48282
48.56	7.27071
48.78	4.88304
49	5.51742
49.22	7.10407
49.44	18.5118
49.66	49.4331
49.88	36.7501
50.1	11.3643
50.32	6.12565
50.54	1.08881
50.76	0.160939
50.98	5.27246
51.2	7.54077
51.42	9.977
51.64	8.63088
51.86	10.1818
52.08	18.413
52.3	2.04211
52.52	2.58255
52.74	2.25096
52.96	1.78903
53.18	6.33668
53.4	3.73069
53.62	1.07225
53.84	3.30981
54.06	8.22646
54.28	6.19902
54.5	3.22105
54.72	0.827292
54.94	2.053
55.16	1.77617
55.38	2.42171
55.6	2.01464
55.82	2.68284
56.04	0.684082
56.26	5.92884
56.48	0.622748
56.7	15.4409
56.92	26.1531
57.14	30.2611
57.36	11.3616
57.58	0.503458
57.8	2.74034
58.02	1.0634
58.24	1.60216
58.46	1.84513
58.68	5.07508
58.9	4.3724
59.12	6.53254
59.34	3.69014
59.56	7.52164
59.78	1.55081
60	3.42668
60.22	8.38857
60.44	3.64312
60.66	7.43808
60.88	4.18694
61.1	5.92288
61.32	0.40126
61.54	0.865662
61.76	3.29338
61.98	1.6854
62.2	2.00291
62.42	9.37306
62.64	12.8741
62.86	32.9786
63.08	28.5129
63.3	11.3725
63.52	11.7693
63.74	19.2239
63.96	14.7122
64.18	9.92215
64.4	1.17536
64.62	1.43772
64.84	1.36299
65.06	0.787081
65.28	2.88076
65.5	4.0428
65.72	8.8902
65.94	17.6397
66.16	18.5919
66.38	8.432
66.6	2.51129
66.82	5.6239
67.04	5.78289
67.26	1.01642
67.48	0.317318
67.7	22.8161
67.92	26.0023
68.14	9.41662
68.36	6.45153
68.58	5.5372
68.8	6.83645
69.02	3.09546
69.24	2.47116
69.46	4.03497
69.68	4.14248
69.9	6.297
70.12	5.23935
70.34	2.28003
70.56	1.87609
70.78	6.71076
71	1.48871
71.22	0.765691
71.44	8.94204
71.66	3.53126
71.88	6.28134
72.1	20.0655
72.32	13.8053
72.54	7.58251
72.76	2.52505
72.98	1.6019
73.2	5.81569
73.42	5.2809
73.64	10.4146
73.86	7.70282
74.08	8.99679
74.3	5.83072
74.52	5.95025
74.74	2.06553
74.96	1.15769
75.18	3.16573
75.4	6.32179
75.62	7.53491
75.84	7.26253
76.06	4.32373
76.28	6.22421
76.5	7.12415
76.72	5.11087
76.94	1.13768
77.16	7.16868
77.38	10.3945
77.6	2.44718
77.82	2.47208
78.04	0.444078
78.26	6.58302
78.48	2.76667
78.7	4.19079
78.92	4.6789
79.14	6.66085
79.36	5.64844
79.58	6.63951
79.8	0.687166
80.02	4.12044
80.24	5.64961
80.46	6.13773
80.68	0.672474
80.9	5.08823
81.12	1.3006
81.34	12.7417
81.56	15.5198
81.78	12.4965
82	15.4351
82.22	10.5234
82.44	8.80154
82.66	4.37487
82.88	1.06928
83.1	1.45547
83.32	4.98062
83.54	2.39833
83.76	3.70056
83.98	3.00467
84.2	3.02549
84.42	1.03048
84.64	5.87044
84.86	5.72063
85.08	4.38505
85.3	2.08777
85.52	6.94962
85.74	2.86656
85.96	8.81648
86.18	0.855527
86.4	4.84255
86.62	8.04428
86.84	3.14523
87.06	5.43129
87.28	2.55795
87.5	6.68554
87.72	2.85592
87.94	1.83291
88.16	0.185462
88.38	3.79224
88.6	4.85908
88.82	4.07628
89.04	12.0653
89.26	2.99709
89.48	9.11699
89.7	12.4675
89.92	7.03161
