Measurement: Powder, Xray Data XY Processed
Mineral: Tennantite-(Zn)
Rruff sample: R050474
Ideal chemistry: Cu^1+^_6_(Cu^1+^_4_Zn^2+^_2_)As^3+^_4_S^2-^_13_
Locality: Daily Judge mine, Park City, Utah, USA
Source: California Institute of Technology
Description: Black crystals associated with pyrite
Diffraction sample description: Powder
Measured chemistry: (Cu_10.01_Zn_1.66_Fe_0.33_)_Î£=12_As_4.00_S_13.00_
Cell parameters: a: 10.2262(2) b: 10.2262(2) c: 10.2262(2) alpha: 90. beta: 90. gamma: 90. volume: 1069.42(7) crystal system: cubic
x	intensity
5	0
5.22	15.41
5.44	12.695
5.66	7.398
5.88	8.375
6.1	18.168
6.32	11.412
6.54	4.823
6.76	12.979
6.98	24.147
7.2	14.567
7.42	0.253
7.64	0.3
7.86	0.513
8.08	14.756
8.3	10.83
8.52	0.747
8.74	8.394
8.96	20.997
9.18	5.124
9.4	8.106
9.62	14.001
9.84	5.31
10.06	4.16
10.28	8.952
10.5	0.232
10.72	2.505
10.94	18.143
11.16	11.683
11.38	3.497
11.6	1.562
11.82	12.405
12.04	11.609
12.26	19.585
12.48	3.815
12.7	10.816
12.92	12.669
13.14	4.023
13.36	11.879
13.58	3.59
13.8	11.675
14.02	3.879
14.24	16.485
14.46	7.671
14.68	23.502
14.9	14.047
15.12	8.919
15.34	3.965
15.56	13.971
15.78	17.781
16	20.649
16.22	4.307
16.44	7.334
16.66	6.358
16.88	6.151
17.1	12.861
17.32	9.792
17.54	19.773
17.76	25.722
17.98	3.021
18.2	16.832
18.42	1.317
18.64	22.876
18.86	11.32
19.08	16.054
19.3	0.479
19.52	10.276
19.74	16.248
19.96	11.177
20.18	8.661
20.4	2.208
20.62	7.076
20.84	13.7
21.06	18.314
21.28	65.972
21.5	29.582
21.72	11.862
21.94	7.821
22.16	8.845
22.38	6.228
22.6	0.711
22.82	4.691
23.04	6.616
23.26	3.327
23.48	1.718
23.7	10.109
23.92	3.878
24.14	15.724
24.36	23.448
24.58	10.646
24.8	9.054
25.02	12.765
25.24	3.083
25.46	9.941
25.68	17.714
25.9	20.138
26.12	14.085
26.34	0.949
26.56	14.471
26.78	18.285
27	0.075
27.22	14.728
27.44	23.588
27.66	27.313
27.88	11.34
28.1	3.288
28.32	15.353
28.54	5.559
28.76	2.428
28.98	14.248
29.2	2.596
29.42	2.046
29.64	2.826
29.86	29.669
30.08	54.639
30.3	1348.58
30.52	59.6
30.74	10.202
30.96	11.242
31.18	1.334
31.4	3.817
31.62	6.986
31.84	0.175
32.06	24.553
32.28	10.81
32.5	18.688
32.72	28.939
32.94	18.205
33.16	25.592
33.38	7.549
33.6	18.954
33.82	14.569
34.04	8.34
34.26	7.108
34.48	23.962
34.7	4.859
34.92	16.149
35.14	176.504
35.36	9.628
35.58	33.247
35.8	16.918
36.02	16.965
36.24	1.19
36.46	11.554
36.68	13.028
36.9	25.275
37.12	13.965
37.34	89.437
37.56	9.522
37.78	7.48
38	23.285
38.22	13.901
38.44	10.037
38.66	6.109
38.88	10.215
39.1	0.395
39.32	3.55
39.54	0.387
39.76	21.032
39.98	18.187
40.2	13.24
40.42	8.565
40.64	11.316
40.86	16.196
41.08	0.917
41.3	8.248
41.52	10.186
41.74	19.403
41.96	11.303
42.18	5.127
42.4	1.695
42.62	10.158
42.84	18.198
43.06	4.415
43.28	24.527
43.5	18.108
43.72	21.756
43.94	9.048
44.16	3.567
44.38	6.23
44.6	13.03
44.82	4.775
45.04	7.935
45.26	64.411
45.48	14.281
45.7	36.092
45.92	22.976
46.14	6.204
46.36	4.154
46.58	8.051
46.8	8.895
47.02	17.855
47.24	19.887
47.46	26.285
47.68	0.761
47.9	7.06
48.12	4.648
48.34	0.792
48.56	2.277
48.78	105.224
49	1.502
49.22	12.453
49.44	4.419
49.66	4.462
49.88	2.921
50.1	15.157
50.32	45.47
50.54	289.429
50.76	54.835
50.98	16.303
51.2	0.102
51.42	2.45
51.64	12.453
51.86	0.733
52.08	25.765
52.3	38.435
52.52	4.874
52.74	0.166
52.96	25.082
53.18	14.148
53.4	10.438
53.62	12.827
53.84	16.391
54.06	2.613
54.28	18.08
54.5	1.634
54.72	0.255
54.94	11.511
55.16	17.183
55.38	75.054
55.6	15.745
55.82	2.7
56.04	2.19
56.26	11.351
56.48	12.794
56.7	15.75
56.92	22.412
57.14	26.246
57.36	6.207
57.58	15.825
57.8	20.331
58.02	14.513
58.24	1.966
58.46	22.01
58.68	2.377
58.9	11.76
59.12	9.996
59.34	13.192
59.56	0.799
59.78	35.927
60	237.196
60.22	66.705
60.44	7.102
60.66	3.63
60.88	10.794
61.1	0.517
61.32	13.009
61.54	26.603
61.76	3.726
61.98	7.675
62.2	1.948
62.42	4.99
62.64	18.009
62.86	15.407
63.08	11.312
63.3	13.076
63.52	3.311
63.74	23.15
63.96	12.007
64.18	17.979
64.4	38.977
64.62	6.568
64.84	13.847
65.06	12.128
65.28	22.351
65.5	2.708
65.72	9.001
65.94	20.116
66.16	26.322
66.38	17.411
66.6	11.675
66.82	11.859
67.04	15.728
67.26	31.659
67.48	29.172
67.7	3.018
67.92	10.862
68.14	7.929
68.36	1.985
68.58	18.843
68.8	24.87
69.02	5.346
69.24	3.26
69.46	10.697
69.68	14.534
69.9	1.648
70.12	7.837
70.34	5.899
70.56	33.049
70.78	16.302
71	26.562
71.22	23.267
71.44	14.087
71.66	26.336
71.88	24.132
72.1	15.664
72.32	13.434
72.54	9.931
72.76	26.428
72.98	11.726
73.2	13.28
73.42	14.796
73.64	2.655
73.86	10.275
74.08	34.262
74.3	23.865
74.52	8.815
74.74	21.917
74.96	15.634
75.18	8.963
75.4	11.418
75.62	16.517
75.84	11.609
76.06	21.825
76.28	12.302
76.5	2.991
76.72	12.334
76.94	31.227
77.16	8.808
77.38	6.298
77.6	2.101
77.82	31.789
78.04	8.407
78.26	23.047
78.48	10.354
78.7	18.121
78.92	29.377
79.14	5.185
79.36	6.01
79.58	14.213
79.8	20.203
80.02	16.563
80.24	11.493
80.46	21.356
80.68	11.163
80.9	24.666
81.12	30.418
81.34	27.341
81.56	15.028
81.78	8.019
82	27.987
82.22	35.632
82.44	31.814
82.66	1.232
82.88	20.357
83.1	8.752
83.32	4.971
83.54	17.98
83.76	11.875
83.98	8.146
84.2	6.694
84.42	13.546
84.64	4.902
84.86	8.804
85.08	8.756
85.3	8.704
85.52	12.767
85.74	9.154
85.96	13.809
86.18	20.599
86.4	15.809
86.62	1.198
86.84	13.916
87.06	29.294
87.28	0.951
87.5	20.852
87.72	3.685
87.94	3.732
88.16	0.639
88.38	14.11
88.6	20.428
88.82	6.097
89.04	18.356
89.26	19.682
89.48	7.767
89.7	14.202
89.92	0.721
