Measurement: Powder, Xray Data XY Processed
Mineral: Tetrahedrite-(Zn)
Rruff sample: R040164
Ideal chemistry: Cu^1+^_6_(Cu^1+^_4_Zn^2+^_2_)Sb^3+^_4_S^2-^_13_
Locality: Sunshine mine, Kellog, Idaho, USA
Source: University of Arizona Mineral Museum
Description: A fragment of massive ore
Diffraction sample description: Powder
Measured chemistry: (Cu_0.75_Fe_0.11_Ag_0.08_Zn_0.05_)_12_(Sb_0.97_As_0.06_)_4_S_13_
Cell parameters: a: 10.4395(5) b: 10.4395(5) c: 10.4395(5) alpha: 90 beta: 90 gamma: 90 volume: 1137.7(0) crystal system: cubic
x	intensity
5	0
5.22	15.386
5.44	13.954
5.66	1.923
5.88	7.411
6.1	0.962
6.32	10.481
6.54	11.969
6.76	13.713
6.98	5.439
7.2	10.374
7.42	6.283
7.64	3.323
7.86	5.634
8.08	12.716
8.3	10.047
8.52	8.138
8.74	12.548
8.96	5.601
9.18	4.442
9.4	20.343
9.62	8.174
9.84	14.957
10.06	7.72
10.28	12.182
10.5	6.415
10.72	15.053
10.94	7.604
11.16	6.514
11.38	2.802
11.6	1.018
11.82	3.924
12.04	47.878
12.26	2.963
12.48	12.245
12.7	0.209
12.92	14.256
13.14	11.359
13.36	16.356
13.58	2.491
13.8	8.471
14.02	13.657
14.24	5.077
14.46	10.015
14.68	10.269
14.9	11.227
15.12	12.976
15.34	6.899
15.56	8.68
15.78	2.576
16	0.697
16.22	2.18
16.44	11.087
16.66	4.817
16.88	12.743
17.1	39.331
17.32	8.825
17.54	0.255
17.76	5.81
17.98	3.844
18.2	10.919
18.42	14.085
18.64	16.077
18.86	14.81
19.08	7.531
19.3	14.306
19.52	5.909
19.74	23.353
19.96	10.048
20.18	1.901
20.4	1.741
20.62	10.619
20.84	10.737
21.06	16.011
21.28	10.481
21.5	9.4
21.72	11.384
21.94	1.73
22.16	13.076
22.38	13.078
22.6	5.781
22.82	7.593
23.04	7.36
23.26	11.801
23.48	5.227
23.7	3.794
23.92	8.854
24.14	110.717
24.36	11.544
24.58	2.352
24.8	8.237
25.02	3.466
25.24	8.377
25.46	13.265
25.68	7.107
25.9	15.962
26.12	6.732
26.34	8.319
26.56	13.041
26.78	210.017
27	16.082
27.22	1.375
27.44	12.23
27.66	6.855
27.88	5.908
28.1	2.513
28.32	3.017
28.54	5.464
28.76	11.409
28.98	11.391
29.2	15.908
29.42	18.396
29.64	435.874
29.86	124.566
30.08	8.716
30.3	1.251
30.52	16.555
30.74	18.889
30.96	6.297
31.18	6.741
31.4	7.221
31.62	6.019
31.84	18.623
32.06	35.626
32.28	25.773
32.5	12.741
32.72	11.348
32.94	18.732
33.16	13.629
33.38	15.513
33.6	5.364
33.82	14.6
34.04	10.662
34.26	33.422
34.48	100.589
34.7	16.455
34.92	16.877
35.14	18.075
35.36	5.198
35.58	1.613
35.8	15.774
36.02	3.321
36.24	15.073
36.46	45.699
36.68	44.737
36.9	17.511
37.12	14.487
37.34	4.199
37.56	20.254
37.78	7.313
38	12.461
38.22	11.637
38.44	10.947
38.66	32.77
38.88	11.409
39.1	1.454
39.32	3.527
39.54	10.414
39.76	12.372
39.98	9.329
40.2	20.388
40.42	13.983
40.64	4.521
40.86	16.242
41.08	4.4
41.3	8.561
41.52	14.712
41.74	1.058
41.96	12.202
42.18	8.366
42.4	1.372
42.62	35.225
42.84	2.361
43.06	11.448
43.28	4.967
43.5	3.207
43.72	0.035
43.94	3.51
44.16	25.25
44.38	66.029
44.6	8.328
44.82	15.243
45.04	8.218
45.26	13.126
45.48	2.077
45.7	2.772
45.92	18.395
46.14	2.73
46.36	6.493
46.58	0.032
46.8	0.331
47.02	11.938
47.24	2.059
47.46	3.847
47.68	36.839
47.9	16.222
48.12	14.389
48.34	7.087
48.56	18.405
48.78	15.028
49	10.557
49.22	26.247
49.44	266.296
49.66	43.137
49.88	24.261
50.1	0.222
50.32	1.842
50.54	4.894
50.76	1.997
50.98	27.01
51.2	16.84
51.42	1.359
51.64	4.29
51.86	12.448
52.08	2.601
52.3	16.832
52.52	22.498
52.74	20.99
52.96	10.494
53.18	2.928
53.4	1.483
53.62	3.664
53.84	5.758
54.06	17.015
54.28	40.564
54.5	10.384
54.72	13.619
54.94	18.501
55.16	6.177
55.38	10.541
55.6	14.59
55.82	12.825
56.04	0.829
56.26	5.994
56.48	17.646
56.7	8.783
56.92	9.709
57.14	6.56
57.36	14.161
57.58	0.674
57.8	10.045
58.02	0.242
58.24	21.546
58.46	31.213
58.68	90.46
58.9	60.011
59.12	2.014
59.34	6.724
59.56	0.003
59.78	2.711
60	7.107
60.22	28.59
60.44	18.088
60.66	1.933
60.88	7.322
61.1	11.605
61.32	0.902
61.54	12.411
61.76	13.196
61.98	9.495
62.2	9.755
62.42	9.004
62.64	16.15
62.86	10.434
63.08	27.644
63.3	7.581
63.52	7.549
63.74	15.669
63.96	3.599
64.18	18.343
64.4	9.263
64.62	17.756
64.84	11.747
65.06	13.149
65.28	1.081
65.5	8.703
65.72	27.496
65.94	9.387
66.16	5.187
66.38	1.054
66.6	14.975
66.82	11.844
67.04	9.171
67.26	4.439
67.48	15.959
67.7	1.656
67.92	3.32
68.14	27.512
68.36	8.64
68.58	6.218
68.8	3.883
69.02	8.713
69.24	4.315
69.46	8.925
69.68	2.086
69.9	12.749
70.12	12.517
70.34	5.056
70.56	7.676
70.78	2.382
71	29.15
71.22	33.801
71.44	3.723
71.66	8.192
71.88	2.993
72.1	12.735
72.32	8.952
72.54	19.972
72.76	1.014
72.98	12.133
73.2	11.639
73.42	6.84
73.64	18.736
73.86	18.506
74.08	15.555
74.3	14.831
74.52	8.857
74.74	19.582
74.96	3.566
75.18	11.526
75.4	9.466
75.62	3.109
75.84	4.616
76.06	3.803
76.28	28.09
76.5	30.246
76.72	22.085
76.94	1.197
77.16	13.031
77.38	1.26
77.6	14.27
77.82	8.083
78.04	4.742
78.26	11.583
78.48	7.699
78.7	23.624
78.92	19.972
79.14	14.594
79.36	10.09
79.58	1.654
79.8	8.348
80.02	17.314
80.24	9.208
80.46	6.188
80.68	0.783
80.9	0.319
81.12	2.485
81.34	9.758
81.56	11.384
81.78	15.739
82	2.722
82.22	12.764
82.44	4.152
82.66	1.466
82.88	4.784
83.1	19.866
83.32	10.615
83.54	1.676
83.76	8.86
83.98	10.938
84.2	18.965
84.42	6.554
84.64	4.444
84.86	5.478
85.08	17.541
85.3	11.574
85.52	13.843
85.74	11.671
85.96	8.433
86.18	11.872
86.4	19.935
86.62	18.904
86.84	1.02
87.06	0.099
87.28	10.532
87.5	17.483
87.72	5.084
87.94	2.094
88.16	11.159
88.38	13.236
88.6	2.766
88.82	0.117
89.04	16.247
89.26	15.404
89.48	3.819
89.7	22.623
89.92	1.94
