Measurement: Powder, Xray Data XY Processed
Mineral: Tetrahedrite-(Zn)
Rruff sample: R050302
Ideal chemistry: Cu^1+^_6_(Cu^1+^_4_Zn^2+^_2_)Sb^3+^_4_S^2-^_13_
Locality: Casapalca, Peru
Source: Eugene Schlepp
Description: Black tetrahedra associated with quartz and pyrite
Diffraction sample description: Powder
Measured chemistry: (Cu_10.02_Zn_1.76_Fe_0.22_)_Σ=12_(Sb_2.42_As_1.58_)_Σ=4_S_13.00_
Cell parameters: a: 10.330(1) b: 10.330(1) c: 10.330(1) alpha: 90 beta: 90 gamma: 90 volume: 1102.4(0) crystal system: cubic
x	intensity
5	0
5.22	19.7745
5.44	7.52499
5.66	12.1192
5.88	8.18014
6.1	5.38771
6.32	13.3469
6.54	7.01656
6.76	12.1376
6.98	7.77959
7.2	4.78459
7.42	10.8247
7.64	3.26864
7.86	0.914034
8.08	1.40002
8.3	7.74948
8.52	4.42256
8.74	9.70602
8.96	12.5749
9.18	4.66157
9.4	5.45635
9.62	7.42974
9.84	9.6068
10.06	21.7561
10.28	13.0655
10.5	16.6768
10.72	7.53979
10.94	5.66699
11.16	12.5855
11.38	15.8233
11.6	13.2596
11.82	13.4618
12.04	9.3655
12.26	7.20633
12.48	15.1316
12.7	14.9995
12.92	1.73639
13.14	10.1214
13.36	3.92985
13.58	10.0181
13.8	8.79113
14.02	11.3278
14.24	7.34016
14.46	16.5671
14.68	12.5909
14.9	6.62195
15.12	3.14021
15.34	11.2072
15.56	9.18873
15.78	9.09515
16	0.13167
16.22	9.8213
16.44	9.76247
16.66	6.9279
16.88	1.92868
17.1	7.83111
17.32	23.2403
17.54	16.433
17.76	5.43739
17.98	2.44508
18.2	8.57814
18.42	9.57258
18.64	9.51886
18.86	2.62972
19.08	6.5338
19.3	7.43076
19.52	11.092
19.74	27.5295
19.96	15.9901
20.18	11.6016
20.4	8.77257
20.62	14.6827
20.84	4.73644
21.06	5.94036
21.28	9.49363
21.5	12.2948
21.72	13.2996
21.94	2.2414
22.16	15.3382
22.38	3.85709
22.6	8.84374
22.82	0.512695
23.04	11.1754
23.26	13.7691
23.48	4.23285
23.7	2.99761
23.92	0.69805
24.14	17.1252
24.36	44.4618
24.58	18.5916
24.8	3.7654
25.02	9.29046
25.24	1.23606
25.46	8.41428
25.68	3.59343
25.9	0.605816
26.12	16.6323
26.34	8.68878
26.56	15.801
26.78	14.4713
27	22.4783
27.22	14.6801
27.44	4.46271
27.66	1.55474
27.88	8.01321
28.1	4.59628
28.32	0.894701
28.54	2.32314
28.76	9.05551
28.98	0.71147
29.2	0.487591
29.42	5.59096
29.64	6.38689
29.86	33.4385
30.08	771.084
30.3	39.1208
30.52	8.18107
30.74	10.4741
30.96	5.32357
31.18	13.6952
31.4	12.1122
31.62	13.4445
31.84	8.70573
32.06	2.56824
32.28	9.0684
32.5	59.375
32.72	16.1175
32.94	6.27401
33.16	75.401
33.38	8.82052
33.6	7.91521
33.82	5.97687
34.04	2.98625
34.26	12.6724
34.48	3.78473
34.7	27.951
34.92	38.7849
35.14	5.25242
35.36	14.1325
35.58	8.14742
35.8	4.08128
36.02	11.2435
36.24	9.25211
36.46	8.39275
36.68	1.94892
36.9	30.9282
37.12	19.4522
37.34	12.8004
37.56	11.287
37.78	11.4264
38	3.40603
38.22	8.87196
38.44	0.664513
38.66	10.9622
38.88	11.9674
39.1	21.146
39.32	11.1275
39.54	11.837
39.76	3.50612
39.98	11.9058
40.2	1.27756
40.42	6.58913
40.64	7.53357
40.86	5.73318
41.08	20.677
41.3	9.898
41.52	2.52365
41.74	4.4319
41.96	7.30581
42.18	10.4091
42.4	12.44
42.62	4.63528
42.84	8.56789
43.06	0.70153
43.28	12.8653
43.5	8.49203
43.72	13.1508
43.94	3.95463
44.16	9.9625
44.38	13.9643
44.6	4.7696
44.82	83.3245
45.04	10.2942
45.26	13.4428
45.48	7.11011
45.7	2.81477
45.92	2.78131
46.14	7.66491
46.36	8.65299
46.58	6.55148
46.8	7.63272
47.02	7.45113
47.24	15.5947
47.46	11.0695
47.68	0.502609
47.9	13.8778
48.12	8.53965
48.34	59.2281
48.56	14.8929
48.78	14.2998
49	2.88411
49.22	5.18552
49.44	7.07627
49.66	2.36154
49.88	112.468
50.1	93.5976
50.32	21.2809
50.54	0.664814
50.76	9.63961
50.98	10.3735
51.2	8.06689
51.42	5.40939
51.64	18.7799
51.86	16.0258
52.08	9.90264
52.3	3.03575
52.52	0.030399
52.74	5.40362
52.96	10.5478
53.18	9.28653
53.4	7.1546
53.62	3.35407
53.84	3.47258
54.06	0.031784
54.28	13.2761
54.5	16.7557
54.72	22.8515
54.94	51.8523
55.16	14.6182
55.38	6.83167
55.6	1.33406
55.82	8.43383
56.04	8.59534
56.26	21.7861
56.48	6.9436
56.7	16.876
56.92	7.77017
57.14	4.62743
57.36	9.86753
57.58	11.1295
57.8	4.88807
58.02	11.0752
58.24	5.96574
58.46	0.902218
58.68	0.75473
58.9	4.62315
59.12	20.5684
59.34	159.99
59.56	46.6588
59.78	3.15255
60	14.7139
60.22	6.97715
60.44	4.47025
60.66	10.7328
60.88	13.8404
61.1	1.16375
61.32	11.346
61.54	16.3861
61.76	5.04532
61.98	14.3151
62.2	9.30324
62.42	5.46438
62.64	1.24555
62.86	7.99
63.08	11.8395
63.3	14.7112
63.52	13.8017
63.74	15.8791
63.96	11.3992
64.18	13.7491
64.4	15.4368
64.62	8.64223
64.84	12.5919
65.06	12.7965
65.28	0.001446
65.5	5.07231
65.72	19.9955
65.94	15.7729
66.16	10.6591
66.38	1.48313
66.6	17.3485
66.82	9.05244
67.04	5.97724
67.26	5.08691
67.48	8.3019
67.7	9.1644
67.92	19.2882
68.14	8.55944
68.36	0.53475
68.58	10.6731
68.8	17.0014
69.02	7.08373
69.24	9.23534
69.46	11.162
69.68	5.258
69.9	11.1839
70.12	4.22187
70.34	6.23018
70.56	8.34499
70.78	21.0121
71	16.7981
71.22	4.23468
71.44	11.0256
71.66	11.8943
71.88	19.8467
72.1	19.237
72.32	10.0599
72.54	14.2137
72.76	16.0904
72.98	22.322
73.2	1.45088
73.42	19.6259
73.64	7.79292
73.86	10.0691
74.08	9.3798
74.3	2.48237
74.52	20.1095
74.74	8.23098
74.96	1.97106
75.18	6.0796
75.4	13.7953
75.62	2.78852
75.84	8.81005
76.06	12.6907
76.28	15.3153
76.5	2.80737
76.72	20.4085
76.94	8.99292
77.16	16.0047
77.38	18.2152
77.6	14.8119
77.82	16.7934
78.04	0.53499
78.26	8.8735
78.48	17.9098
78.7	7.61597
78.92	5.32859
79.14	2.97275
79.36	2.32447
79.58	9.26961
79.8	24.5216
80.02	21.262
80.24	12.0142
80.46	12.5612
80.68	7.48767
80.9	7.88417
81.12	158.974
81.34	91.365
81.56	12.6533
81.78	13.424
82	5.81015
82.22	7.14147
82.44	13.5587
82.66	10.751
82.88	8.05864
83.1	6.16023
83.32	7.78647
83.54	13.9108
83.76	26.0109
83.98	14.9742
84.2	1.63531
84.42	2.99601
84.64	8.0605
84.86	18.8684
85.08	5.11955
85.3	6.94907
85.52	9.8223
85.74	1.74265
85.96	10.8146
86.18	10.2677
86.4	6.22063
86.62	10.7023
86.84	12.5177
87.06	21.2553
87.28	16.2819
87.5	51.5037
87.72	16.8188
87.94	12.1497
88.16	13.2947
88.38	20.6465
88.6	8.11657
88.82	8.07764
89.04	5.76037
89.26	12.4917
89.48	5.9227
89.7	2.25291
89.92	10.2872
