Measurement: Powder, Xray Data XY Processed
Mineral: Thaumasite
Rruff sample: R060296
Ideal chemistry: Ca_3_Si(OH)_6_(S^6+^O_4_)(CO_3_)12H_2_O
Locality: N'Chwaning II mine, Kalahari manganese field, Cape Province, South Africa
Source: Herb Obodda
Description: Pale blue hexagonal prism
Diffraction sample description: Powder
Cell parameters: a: 11.0601(4) b: 11.0601(4) c: 10.436(1) alpha: 90 beta: 90 gamma: 120 volume: 1105.5(0) crystal system: hexagonal
x	intensity
5	0
5.22	12.022
5.44	6.038
5.66	10.588
5.88	6.041
6.1	5.192
6.32	19.264
6.54	5.576
6.76	3.422
6.98	3.386
7.2	20.898
7.42	16.442
7.64	9.876
7.86	12.44
8.08	14.456
8.3	15.596
8.52	4.425
8.74	3.511
8.96	15.541
9.18	223.383
9.4	30.364
9.62	10.351
9.84	14.341
10.06	16.332
10.28	12.421
10.5	17.465
10.72	6.695
10.94	2.313
11.16	10.593
11.38	11.211
11.6	10.121
11.82	11.775
12.04	12.644
12.26	6.229
12.48	12.974
12.7	16.44
12.92	10.505
13.14	9.565
13.36	14.016
13.58	13.555
13.8	12.395
14.02	8.006
14.24	14.318
14.46	25.981
14.68	5.35
14.9	12.835
15.12	4.759
15.34	18.089
15.56	15.489
15.78	1.012
16	197.275
16.22	17.547
16.44	17.887
16.66	8.289
16.88	2.288
17.1	7.446
17.32	2.615
17.54	5.799
17.76	3.132
17.98	13.464
18.2	25.56
18.42	7.68
18.64	7.789
18.86	3.162
19.08	2.429
19.3	65.335
19.52	12.56
19.74	5.234
19.96	10.07
20.18	11.729
20.4	13.534
20.62	9.375
20.84	13.934
21.06	13.837
21.28	3.943
21.5	13.021
21.72	5.983
21.94	2.582
22.16	1.407
22.38	8.337
22.6	23.809
22.82	1.268
23.04	7.119
23.26	6.397
23.48	140.515
23.7	13.705
23.92	2.584
24.14	0.367
24.36	0.028
24.58	14.213
24.8	4.161
25.02	4.047
25.24	35.797
25.46	8.946
25.68	1.615
25.9	23.697
26.12	76.535
26.34	8.173
26.56	2.03
26.78	1.643
27	1.033
27.22	1.521
27.44	7.571
27.66	9.757
27.88	51.189
28.1	6.332
28.32	0.337
28.54	1.707
28.76	12.689
28.98	3.473
29.2	10.272
29.42	5.03
29.64	19.108
29.86	4.784
30.08	13.891
30.3	12.128
30.52	12.561
30.74	4.817
30.96	1.582
31.18	10.739
31.4	8.576
31.62	2.516
31.84	7.358
32.06	5.833
32.28	0.046
32.5	9.79
32.72	14.598
32.94	71.346
33.16	11.994
33.38	2.562
33.6	13.752
33.82	12.773
34.04	5.889
34.26	8.697
34.48	19.93
34.7	16.956
34.92	28.196
35.14	13.585
35.36	6.314
35.58	22.169
35.8	52.71
36.02	26.13
36.24	13.937
36.46	5.662
36.68	2.447
36.9	9.969
37.12	2.381
37.34	7.816
37.56	14.097
37.78	5.402
38	24.181
38.22	8.212
38.44	3.923
38.66	8.953
38.88	14.702
39.1	4.702
39.32	1.531
39.54	7.338
39.76	9.223
39.98	9.432
40.2	11.451
40.42	3.863
40.64	10.124
40.86	3.521
41.08	11.596
41.3	6.307
41.52	25.712
41.74	67.281
41.96	41.79
42.18	0.643
42.4	11.099
42.62	16.645
42.84	32.778
43.06	11.399
43.28	2.193
43.5	8.018
43.72	3.591
43.94	3.872
44.16	10.101
44.38	5.664
44.6	16.251
44.82	12.894
45.04	2.31
45.26	7.009
45.48	10.367
45.7	10.378
45.92	10.267
46.14	3.543
46.36	11.497
46.58	0.203
46.8	23.362
47.02	3.634
47.24	7.988
47.46	35.267
47.68	2.753
47.9	3.825
48.12	3.09
48.34	3.787
48.56	5.066
48.78	11.586
49	2.758
49.22	0.545
49.44	2.536
49.66	7.536
49.88	2.763
50.1	11.444
50.32	16.523
50.54	13.603
50.76	16.451
50.98	2.231
51.2	7.227
51.42	9.356
51.64	7.629
51.86	7.282
52.08	6.711
52.3	2.54
52.52	9.728
52.74	3.684
52.96	0.136
53.18	13.98
53.4	5.814
53.62	12.849
53.84	9.689
54.06	9.633
54.28	3.114
54.5	1.824
54.72	9.838
54.94	0.145
55.16	2.81
55.38	5.77
55.6	8.707
55.82	5.249
56.04	13.279
56.26	15.041
56.48	22.11
56.7	4.448
56.92	6.842
57.14	2.073
57.36	18.147
57.58	9.296
57.8	15.51
58.02	7.482
58.24	6.998
58.46	0.716
58.68	0.672
58.9	3.635
59.12	9.535
59.34	5.309
59.56	4.26
59.78	13.713
60	4.911
60.22	3.175
60.44	7.471
60.66	11.948
60.88	5.238
61.1	6.342
61.32	8.522
61.54	13.691
61.76	2.717
61.98	5.5
62.2	1.451
62.42	9.281
62.64	12.978
62.86	7.697
63.08	0.677
63.3	17.648
63.52	1.697
63.74	7.787
63.96	8.862
64.18	7.166
64.4	0.585
64.62	4.753
64.84	4.086
65.06	1.518
65.28	0.999
65.5	6.779
65.72	2.888
65.94	2.074
66.16	1.885
66.38	7.053
66.6	1.837
66.82	4.516
67.04	9.319
67.26	13.331
67.48	9.801
67.7	12.638
67.92	0.368
68.14	0.621
68.36	2.919
68.58	8.998
68.8	3.129
69.02	4.273
69.24	7.416
69.46	2.756
69.68	5.621
69.9	14.708
70.12	12.023
70.34	7.298
70.56	11.341
70.78	4.938
71	4.913
71.22	6.102
71.44	5.108
71.66	4.179
71.88	2.102
72.1	6.126
72.32	8.161
72.54	5.885
72.76	6.709
72.98	7.657
73.2	6.912
73.42	10.938
73.64	17.662
73.86	0.213
74.08	9.723
74.3	3.616
74.52	8.613
74.74	4.072
74.96	5.266
75.18	9.474
75.4	10.504
75.62	16.27
75.84	4.526
76.06	4.417
76.28	11.257
76.5	2.269
76.72	11.223
76.94	6.31
77.16	4.806
77.38	3.847
77.6	1.026
77.82	10.144
78.04	5.205
78.26	13.013
78.48	4.077
78.7	5.362
78.92	8.324
79.14	0.609
79.36	9.584
79.58	8.617
79.8	1.404
80.02	8.156
80.24	4.123
80.46	5.183
80.68	3.382
80.9	4.391
81.12	0.443
81.34	10.566
81.56	3.498
81.78	5.314
82	11.524
82.22	2.444
82.44	2.257
82.66	2.21
82.88	8.086
83.1	1.129
83.32	5.025
83.54	13.143
83.76	17.063
83.98	11.189
84.2	9.503
84.42	3.529
84.64	5.181
84.86	13.001
85.08	10.094
85.3	4.06
85.52	8.102
85.74	6.968
85.96	4.495
86.18	0.337
86.4	6.571
86.62	0.734
86.84	13.94
87.06	9.567
87.28	0.492
87.5	5.386
87.72	3.338
87.94	8.29
88.16	2.43
88.38	9.667
88.6	1.636
88.82	3.828
89.04	9.112
89.26	5.418
89.48	16.019
89.7	6.605
89.92	13.062
