Measurement: Powder, Xray Data XY Processed
Mineral: Thenardite
Rruff sample: R040178
Ideal chemistry: Na_2_S^6+^O_4_
Locality: Bonita Flow, Flagstaff, Coconino County, Arizona, USA
Source: University of Arizona Mineral Museum
Description: Tan colored powder
Diffraction sample description: Powder
Cell parameters: a: 9.8210(3) b: 12.3066(3) c: 5.8605(1) alpha: 90. beta: 90. gamma: 90. volume: 708.33(2) crystal system: orthorhombic
x	intensity
5	0
5.22	15.894
5.44	2.14428
5.66	11.852
5.88	5.55929
6.1	6.79191
6.32	14.0786
6.54	11.3928
6.76	6.67322
6.98	7.09294
7.2	15.906
7.42	8.79145
7.64	6.97245
7.86	4.66217
8.08	6.18558
8.3	0.159617
8.52	4.80093
8.74	19.261
8.96	5.71846
9.18	5.02708
9.4	9.39673
9.62	24.7279
9.84	9.76873
10.06	4.94981
10.28	7.2224
10.5	6.20947
10.72	4.90831
10.94	6.84703
11.16	14.867
11.38	6.94857
11.6	10.1205
11.82	10.2309
12.04	5.87876
12.26	4.80511
12.48	2.70747
12.7	0.583572
12.92	3.7626
13.14	2.80068
13.36	0.899681
13.58	6.21965
13.8	13.4382
14.02	6.45876
14.24	6.50994
14.46	3.78195
14.68	4.9996
14.9	9.14736
15.12	13.1292
15.34	5.15818
15.56	10.8247
15.78	6.93243
16	13.9324
16.22	6.76786
16.44	0.831367
16.66	6.20067
16.88	4.50889
17.1	1.91169
17.32	10.8378
17.54	10.6577
17.76	5.3797
17.98	0.633441
18.2	7.24434
18.42	2.74665
18.64	5.30994
18.86	15.3299
19.08	800.545
19.3	29.9674
19.52	7.46215
19.74	1.28916
19.96	3.62245
20.18	5.60839
20.4	3.02951
20.62	8.31008
20.84	15.6123
21.06	7.19918
21.28	9.86566
21.5	5.01428
21.72	4.91125
21.94	8.10632
22.16	2.19491
22.38	0.128322
22.6	7.93046
22.82	4.69789
23.04	15.3496
23.26	99.2992
23.48	9.02835
23.7	14.3292
23.92	4.64275
24.14	3.28361
24.36	10.9416
24.58	11.9949
24.8	9.08495
25.02	8.13208
25.24	8.92218
25.46	1.68781
25.68	3.86937
25.9	14.155
26.12	1.60876
26.34	7.1252
26.56	9.53209
26.78	7.53295
27	0.208432
27.22	2.01181
27.44	2.2633
27.66	11.3882
27.88	25.548
28.1	516.66
28.32	19.8912
28.54	5.56609
28.76	14.4087
28.98	110.435
29.2	56.3801
29.42	13.7247
29.64	7.5343
29.86	10.8479
30.08	0.986465
30.3	7.96226
30.52	12.1019
30.74	9.20292
30.96	14.5271
31.18	8.05338
31.4	6.26947
31.62	7.56567
31.84	18.3112
32.06	123.454
32.28	498.603
32.5	32.7078
32.72	1.73233
32.94	12.5496
33.16	1.94605
33.38	7.62365
33.6	0.379515
33.82	97.9373
34.04	120.418
34.26	12.1646
34.48	1.89644
34.7	14.1305
34.92	7.62306
35.14	7.26004
35.36	1.28485
35.58	8.75738
35.8	11.3898
36.02	6.5688
36.24	11.0504
36.46	9.21545
36.68	9.50788
36.9	6.57159
37.12	9.74659
37.34	3.63816
37.56	5.6021
37.78	3.13205
38	4.09445
38.22	6.76061
38.44	38.7295
38.66	211.021
38.88	31.2661
39.1	8.35112
39.32	6.3852
39.54	2.45833
39.76	3.31947
39.98	10.8455
40.2	5.15603
40.42	6.31566
40.64	5.53428
40.86	27.6506
41.08	8.42504
41.3	1.15828
41.52	9.08999
41.74	7.02025
41.96	6.98354
42.18	6.04604
42.4	17.2529
42.62	7.06032
42.84	5.87261
43.06	3.75095
43.28	0.998789
43.5	9.75412
43.72	12.9992
43.94	11.0092
44.16	9.02258
44.38	4.10169
44.6	7.05346
44.82	7.0034
45.04	4.15724
45.26	3.24137
45.48	4.21828
45.7	8.09343
45.92	2.37488
46.14	4.84495
46.36	5.46165
46.58	2.10843
46.8	10.2434
47.02	2.55964
47.24	16.6799
47.46	18.611
47.68	2.91524
47.9	3.96792
48.12	16.1584
48.34	6.16222
48.56	14.7311
48.78	160.611
49	129.877
49.22	14.4689
49.44	22.772
49.66	28.1857
49.88	1.83436
50.1	2.5947
50.32	6.55525
50.54	9.38468
50.76	38.3892
50.98	0.498289
51.2	3.94072
51.42	7.05612
51.64	6.72239
51.86	7.1426
52.08	9.58339
52.3	5.83809
52.52	7.58264
52.74	2.55354
52.96	1.84558
53.18	9.49533
53.4	3.11864
53.62	3.63854
53.84	10.4082
54.06	10.8971
54.28	2.70515
54.5	26.4194
54.72	52.8146
54.94	10.2597
55.16	20.5327
55.38	37.0294
55.6	5.47988
55.82	2.91876
56.04	1.20625
56.26	2.82539
56.48	10.1339
56.7	9.18384
56.92	9.11952
57.14	12.4482
57.36	34.7573
57.58	23.9917
57.8	4.97689
58.02	15.6841
58.24	6.27569
58.46	13.28
58.68	4.41779
58.9	3.60163
59.12	5.71839
59.34	20.2561
59.56	80.7891
59.78	19.1025
60	8.65608
60.22	9.74603
60.44	0.822727
60.66	6.81943
60.88	7.91245
61.1	1.98669
61.32	18.0286
61.54	7.26968
61.76	12.6325
61.98	25.6978
62.2	16.778
62.42	8.86787
62.64	1.10531
62.86	1.35935
63.08	2.68742
63.3	5.16609
63.52	4.19415
63.74	12.1855
63.96	2.02925
64.18	10.3418
64.4	2.92143
64.62	8.82676
64.84	5.73519
65.06	9.60633
65.28	43.4882
65.5	26.9706
65.72	6.97566
65.94	1.17679
66.16	10.1451
66.38	9.20246
66.6	8.28102
66.82	6.28128
67.04	1.24719
67.26	8.20802
67.48	11.236
67.7	11.4366
67.92	8.91791
68.14	10.8467
68.36	11.7913
68.58	10.97
68.8	10.2692
69.02	3.97598
69.24	2.27461
69.46	6.41828
69.68	5.55598
69.9	1.74124
70.12	1.45858
70.34	0.341813
70.56	7.99494
70.78	4.95282
71	5.25479
71.22	31.8906
71.44	19.9305
71.66	2.40145
71.88	2.03403
72.1	2.58099
72.32	2.09394
72.54	17.008
72.76	11.7731
72.98	32.5495
73.2	22.2985
73.42	10.6842
73.64	7.14208
73.86	13.6421
74.08	24.1281
74.3	30.5405
74.52	8.98205
74.74	5.46466
74.96	1.03762
75.18	9.48043
75.4	4.07313
75.62	13.6687
75.84	16.8889
76.06	2.57615
76.28	8.37124
76.5	5.18217
76.72	1.07055
76.94	7.92832
77.16	1.90799
77.38	11.7099
77.6	2.53404
77.82	0.26654
78.04	0.976641
78.26	7.42316
78.48	3.49206
78.7	3.80048
78.92	15.0995
79.14	13.411
79.36	4.68726
79.58	2.64161
79.8	1.6657
80.02	1.16893
80.24	4.0339
80.46	8.1095
80.68	6.95611
80.9	11.0072
81.12	0.841988
81.34	5.00989
81.56	16.2439
81.78	7.19725
82	6.23695
82.22	2.20761
82.44	5.26497
82.66	1.46944
82.88	6.36256
83.1	6.44177
83.32	8.45468
83.54	3.49488
83.76	4.02066
83.98	0.117027
84.2	6.8296
84.42	4.73575
84.64	4.63454
84.86	9.57833
85.08	6.41419
85.3	6.42822
85.52	24.3518
85.74	12.3241
85.96	11.2108
86.18	1.17226
86.4	6.16257
86.62	3.15214
86.84	1.29777
87.06	0.287786
87.28	2.34665
87.5	5.16593
87.72	7.0666
87.94	5.03753
88.16	4.05122
88.38	1.15227
88.6	6.23324
88.82	13.3881
89.04	10.4536
89.26	7.62103
89.48	5.88254
89.7	2.40453
89.92	4.53831
