Measurement: Powder, Xray Data XY Processed
Mineral: Thomsonite-Ca
Rruff sample: R050103
Ideal chemistry: NaCa_2_(Al_5_Si_5_)O_20_6H_2_O
Locality: Seeberg, Bohemia, Czech Republic
Source: Rock Currier
Description: Colorless prismatic crystals
Diffraction sample description: Powder
Measured chemistry: Na_1.00_(Ca_0.92_Sr_0.08_)_2_(Al_5.00_Si_5.00_)O_20_Â·6H_2_O
Cell parameters: a: 13.1006(6) b: 13.0587(8) c: 13.2261(6) alpha: 90. beta: 90. gamma: 90. volume: 2262.7(2) crystal system: orthorhombic
x	intensity
5	0
5.22	14.017
5.44	12.351
5.66	1.266
5.88	6.182
6.1	5.5
6.32	10.832
6.54	11.195
6.76	11.459
6.98	3.971
7.2	6.673
7.42	3.93
7.64	8.404
7.86	7.795
8.08	3.307
8.3	7.831
8.52	5.946
8.74	1.357
8.96	5.635
9.18	0.073
9.4	11.892
9.62	60.957
9.84	2.159
10.06	2.27
10.28	5.701
10.5	1.72
10.72	9.069
10.94	6.167
11.16	10.104
11.38	9.12
11.6	4.066
11.82	4.354
12.04	5.184
12.26	20.014
12.48	8.853
12.7	5.374
12.92	3.135
13.14	10.595
13.36	84.743
13.58	970.822
13.8	12.438
14.02	2.081
14.24	1.108
14.46	11.099
14.68	0.758
14.9	9.511
15.12	20.202
15.34	8.516
15.56	0.222
15.78	3.988
16	3.161
16.22	0.499
16.44	7.27
16.66	7.55
16.88	3.127
17.1	9.347
17.32	12.383
17.54	2.799
17.76	5.149
17.98	5.986
18.2	3.54
18.42	9.416
18.64	8.403
18.86	16.626
19.08	140.105
19.3	50.397
19.52	7.412
19.74	1.357
19.96	12.245
20.18	7.366
20.4	79.427
20.62	1.563
20.84	0.766
21.06	6.97
21.28	1.647
21.5	213.537
21.72	3.924
21.94	4.905
22.16	2.742
22.38	10.961
22.6	18.02
22.82	7.469
23.04	5.783
23.26	8.649
23.48	30.528
23.7	0.813
23.92	1.927
24.14	4.826
24.36	0.829
24.58	10.836
24.8	4.934
25.02	0.085
25.24	5.233
25.46	208.17
25.68	7.096
25.9	7.124
26.12	1.591
26.34	7.498
26.56	3.312
26.78	1.104
27	0.091
27.22	85.559
27.44	4.754
27.66	13.516
27.88	93.193
28.1	95.324
28.32	7.326
28.54	1.798
28.76	6.838
28.98	17.863
29.2	2.732
29.42	3.569
29.64	11.237
29.86	0.776
30.08	5.214
30.3	106.947
30.52	73.516
30.74	9.503
30.96	2.138
31.18	35.826
31.4	163.081
31.62	0.709
31.84	0.648
32.06	46.772
32.28	2.861
32.5	3.863
32.72	6.542
32.94	3.011
33.16	5.1
33.38	29.468
33.6	72.67
33.82	8.552
34.04	2.616
34.26	0.991
34.48	7.347
34.7	15.525
34.92	23.628
35.14	11.574
35.36	8.794
35.58	6.693
35.8	0.597
36.02	5.522
36.24	6.704
36.46	2.164
36.68	5.745
36.9	13.023
37.12	8.385
37.34	13.912
37.56	1.895
37.78	10.506
38	6.394
38.22	2.821
38.44	1.191
38.66	10.499
38.88	6.062
39.1	1.261
39.32	22.877
39.54	15.091
39.76	6.562
39.98	214.344
40.2	16.194
40.42	3.094
40.64	0.885
40.86	5.58
41.08	5.34
41.3	73.526
41.52	290.72
41.74	5.707
41.96	1.091
42.18	3.169
42.4	2.185
42.62	26.203
42.84	13.234
43.06	0.742
43.28	47.622
43.5	5.461
43.72	11.685
43.94	37.011
44.16	16.202
44.38	3.926
44.6	5.105
44.82	5.391
45.04	7.469
45.26	3.502
45.48	3.505
45.7	4.339
45.92	15.616
46.14	15.423
46.36	21.363
46.58	12.066
46.8	12.142
47.02	9.004
47.24	1.085
47.46	0.132
47.68	1.83
47.9	4.088
48.12	5.181
48.34	21.834
48.56	6.051
48.78	6.934
49	15.695
49.22	4.651
49.44	14.502
49.66	2.567
49.88	14.842
50.1	6.766
50.32	21.704
50.54	22.177
50.76	10.742
50.98	1.622
51.2	10.667
51.42	14.858
51.64	0.021
51.86	5.243
52.08	14.232
52.3	5.009
52.52	4.115
52.74	23.442
52.96	2.928
53.18	10.6
53.4	72.56
53.62	2.555
53.84	5.515
54.06	3.502
54.28	0.359
54.5	2.809
54.72	5.108
54.94	8.458
55.16	3.248
55.38	6.305
55.6	3.002
55.82	7.063
56.04	4.071
56.26	17.036
56.48	38.452
56.7	18.482
56.92	8.385
57.14	4.168
57.36	4.962
57.58	7.012
57.8	6.08
58.02	26.305
58.24	9.921
58.46	5.212
58.68	19.252
58.9	24.02
59.12	3.986
59.34	5.073
59.56	7.092
59.78	11.02
60	7.541
60.22	16.507
60.44	12.27
60.66	8.786
60.88	5.592
61.1	5.467
61.32	11.763
61.54	5.037
61.76	1.168
61.98	9.162
62.2	2.233
62.42	5.695
62.64	2.686
62.86	3.639
63.08	1.011
63.3	17.271
63.52	55.355
63.74	24.749
63.96	15.716
64.18	1.46
64.4	3.44
64.62	3.431
64.84	4.473
65.06	7.738
65.28	4.635
65.5	7.919
65.72	0.306
65.94	1.376
66.16	1.271
66.38	0.728
66.6	1.829
66.82	2.923
67.04	4.235
67.26	10.437
67.48	0.888
67.7	6.831
67.92	6.85
68.14	2.056
68.36	4.382
68.58	4.492
68.8	3.614
69.02	2.996
69.24	6.118
69.46	12.803
69.68	9.537
69.9	3.794
70.12	4.546
70.34	1.214
70.56	8.856
70.78	9.372
71	5.158
71.22	3.849
71.44	2.179
71.66	2.245
71.88	8.383
72.1	5.71
72.32	48.058
72.54	28.105
72.76	0.207
72.98	1.534
73.2	4.704
73.42	4.951
73.64	11.081
73.86	6.515
74.08	6.786
74.3	1.778
74.52	2.592
74.74	7.457
74.96	2.884
75.18	5.02
75.4	19.286
75.62	15.393
75.84	8.525
76.06	0.376
76.28	4.571
76.5	1.476
76.72	2.674
76.94	0.019
77.16	0.006
77.38	12.683
77.6	10.667
77.82	2.494
78.04	0.602
78.26	3.153
78.48	7.33
78.7	11.76
78.92	8.686
79.14	11.581
79.36	13.283
79.58	5.257
79.8	1.197
80.02	6.082
80.24	1.932
80.46	7.945
80.68	10.012
80.9	36.624
81.12	7.372
81.34	11.374
81.56	17.542
81.78	2.807
82	4.33
82.22	4.497
82.44	9.692
82.66	6.912
82.88	0.896
83.1	2.195
83.32	0.329
83.54	5.375
83.76	9.65
83.98	6.587
84.2	5.353
84.42	2.951
84.64	0.075
84.86	7.908
85.08	6.091
85.3	12.018
85.52	18.113
85.74	3.134
85.96	3.356
86.18	3.263
86.4	0.559
86.62	11.481
86.84	7.494
87.06	8.5
87.28	3.64
87.5	3.469
87.72	2.341
87.94	3.109
88.16	10.122
88.38	0.846
88.6	4.217
88.82	4.217
89.04	7.403
89.26	1.412
89.48	3.808
89.7	1.564
89.92	1.164
