Measurement: Powder, Xray Data XY Processed
Mineral: Thorianite
Rruff sample: R130003
Ideal chemistry: ThO_2_
Locality: Millar's mine, Tory Hill, Monmouth Township, Haliburton County, Ontario, Canada
Source: Don Doell
Description: Broken black cubes
Diffraction sample description: Powder
Cell parameters: a: 5.5605(2) b: 5.5605(2) c: 5.5605(2) alpha: 90 beta: 90 gamma: 90 volume: 171.93(2) crystal system: cubic
x	intensity
5	0
5.22	51.864
5.44	29.3331
5.66	10.8971
5.88	18.4335
6.1	24.447
6.32	34.1294
6.54	19.4251
6.76	23.4075
6.98	18.0285
7.2	3.72002
7.42	10.744
7.64	33.0583
7.86	15.245
8.08	43.6442
8.3	32.1127
8.52	25.2955
8.74	10.2748
8.96	18.9847
9.18	6.53875
9.4	14.4162
9.62	10.7657
9.84	7.85651
10.06	26.3895
10.28	52.7257
10.5	66.7314
10.72	32.4189
10.94	32.2259
11.16	1.85796
11.38	12.0176
11.6	23.3911
11.82	1.7159
12.04	17.1223
12.26	12.4381
12.48	26.3925
12.7	11.154
12.92	8.92699
13.14	18.3292
13.36	10.1058
13.58	19.445
13.8	14.5661
14.02	25.1073
14.24	3.59192
14.46	11.3982
14.68	11.2397
14.9	16.2849
15.12	14.2249
15.34	14.5602
15.56	3.6426
15.78	17.0106
16	18.6056
16.22	11.615
16.44	3.13389
16.66	16.3532
16.88	24.4471
17.1	28.3888
17.32	9.81673
17.54	14.9883
17.76	2.72586
17.98	21.4034
18.2	8.45659
18.42	21.7732
18.64	14.5235
18.86	9.98092
19.08	15.4361
19.3	5.66994
19.52	11.2763
19.74	14.8026
19.96	17.9993
20.18	0.541588
20.4	11.3808
20.62	10.6584
20.84	7.25712
21.06	18.8093
21.28	12.4744
21.5	2.25556
21.72	11.9209
21.94	9.18664
22.16	12.8281
22.38	20.3589
22.6	15.8268
22.82	3.89814
23.04	10.2533
23.26	14.7672
23.48	11.5645
23.7	10.2138
23.92	20.0072
24.14	14.8847
24.36	9.94758
24.58	12.6063
24.8	21.871
25.02	46.2529
25.24	16.2579
25.46	11.3017
25.68	3.27121
25.9	2.62332
26.12	0.153358
26.34	5.76712
26.56	5.78008
26.78	16.0465
27	3.17742
27.22	35.8054
27.44	57.6053
27.66	1157.12
27.88	454.229
28.1	29.8155
28.32	18.6213
28.54	56.5837
28.76	20.5784
28.98	25.742
29.2	5.18299
29.42	11.1669
29.64	11.4494
29.86	4.01157
30.08	6.53799
30.3	17.5164
30.52	19.2793
30.74	15.2851
30.96	13.489
31.18	15.3803
31.4	19.2946
31.62	12.6288
31.84	63.8539
32.06	322.5
32.28	209.376
32.5	22.5368
32.72	0.768291
32.94	11.4825
33.16	14.5387
33.38	8.30222
33.6	1.67814
33.82	3.00823
34.04	0.043415
34.26	10.2698
34.48	14.9126
34.7	17.0663
34.92	14.3831
35.14	5.54467
35.36	5.98085
35.58	7.33235
35.8	6.05192
36.02	17.837
36.24	6.73869
36.46	4.73855
36.68	13.1062
36.9	5.49856
37.12	20.4473
37.34	8.51873
37.56	10.7634
37.78	11.8928
38	29.1152
38.22	8.58836
38.44	23.7879
38.66	2.83205
38.88	19.0715
39.1	18.1351
39.32	18.6704
39.54	8.92186
39.76	15.9729
39.98	7.71178
40.2	16.2579
40.42	13.151
40.64	12.6034
40.86	4.49544
41.08	2.62722
41.3	16.627
41.52	27.5228
41.74	17.7488
41.96	12.953
42.18	18.9159
42.4	10.3137
42.62	11.1595
42.84	10.9853
43.06	15.984
43.28	1.01775
43.5	3.84432
43.72	8.82706
43.94	16.7377
44.16	8.84355
44.38	15.9034
44.6	8.15346
44.82	4.02548
45.04	12.4478
45.26	8.8855
45.48	18.1225
45.7	43.2994
45.92	229.684
46.14	850.554
46.36	187.248
46.58	21.3713
46.8	24.8648
47.02	1.04342
47.24	0.866558
47.46	9.99616
47.68	5.0633
47.9	16.2411
48.12	21.6951
48.34	8.54801
48.56	28.292
48.78	18.0035
49	24.2154
49.22	5.03682
49.44	3.75429
49.66	12.1791
49.88	5.94308
50.1	22.1315
50.32	10.6926
50.54	21.6475
50.76	11.5841
50.98	12.4842
51.2	7.61761
51.42	29.5316
51.64	21.027
51.86	0.167755
52.08	4.56928
52.3	8.31578
52.52	14.7354
52.74	6.02909
52.96	16.883
53.18	8.52446
53.4	9.33984
53.62	10.6205
53.84	15.5018
54.06	20.8378
54.28	30.239
54.5	245.309
54.72	639.898
54.94	208.085
55.16	44.3596
55.38	17.7846
55.6	20.6065
55.82	9.59962
56.04	9.36492
56.26	3.57987
56.48	6.3705
56.7	0.340096
56.92	9.99177
57.14	77.7909
57.36	166.988
57.58	51.1036
57.8	34.0095
58.02	27.2213
58.24	10.2479
58.46	5.30027
58.68	10.0192
58.9	1.7441
59.12	5.4698
59.34	2.24329
59.56	3.01606
59.78	9.24518
60	7.06117
60.22	4.92476
60.44	10.1719
60.66	9.23314
60.88	18.6602
61.1	13.2147
61.32	7.85743
61.54	0.115715
61.76	6.2286
61.98	10.4489
62.2	10.5484
62.42	19.8269
62.64	17.0153
62.86	6.04958
63.08	8.2823
63.3	7.05785
63.52	1.97311
63.74	6.7035
63.96	10.9874
64.18	8.06621
64.4	3.06448
64.62	14.8358
64.84	14.3194
65.06	18.2805
65.28	8.4657
65.5	12.1793
65.72	10.8055
65.94	16.6052
66.16	13.6111
66.38	13.836
66.6	16.0738
66.82	4.37622
67.04	46.9109
67.26	100.849
67.48	63.5514
67.7	17.2885
67.92	13.1466
68.14	9.36155
68.36	1.01518
68.58	5.55229
68.8	10.3806
69.02	13.0575
69.24	26.7817
69.46	20.7937
69.68	12.5527
69.9	13.7948
70.12	3.4671
70.34	7.46863
70.56	2.51035
70.78	9.46429
71	21.5425
71.22	2.59383
71.44	12.0168
71.66	20.4851
71.88	15.661
72.1	8.9122
72.32	13.2937
72.54	9.85823
72.76	1.23232
72.98	11.0882
73.2	9.57066
73.42	0.828854
73.64	14.0541
73.86	18.6929
74.08	145.351
74.3	216.206
74.52	134.675
74.74	21.5352
74.96	5.20881
75.18	22.8995
75.4	10.9053
75.62	7.08757
75.84	4.43078
76.06	0.825005
76.28	40.6184
76.5	134.858
76.72	151.601
76.94	70.0851
77.16	15.9872
77.38	19.3228
77.6	11.0105
77.82	10.3996
78.04	3.77278
78.26	13.0778
78.48	19.433
78.7	3.81755
78.92	19.7494
79.14	6.33519
79.36	19.8238
79.58	24.9264
79.8	23.3673
80.02	1.02255
80.24	20.3316
80.46	12.697
80.68	20.2203
80.9	14.6817
81.12	3.83822
81.34	6.07672
81.56	13.1322
81.78	22.9348
82	17.6047
82.22	0.4953
82.44	17.5042
82.66	7.69673
82.88	18.2392
83.1	13.9711
83.32	7.79923
83.54	30.7049
83.76	7.85522
83.98	12.6238
84.2	4.51791
84.42	12.3898
84.64	33.0983
84.86	16.4694
85.08	35.1078
85.3	124.056
85.52	160.775
85.74	95.0663
85.96	32.367
86.18	13.8952
86.4	16.8103
86.62	10.0839
86.84	5.44952
87.06	5.09005
87.28	8.06601
87.5	29.3743
87.72	7.83655
87.94	15.3375
88.16	16.4856
88.38	6.35074
88.6	21.7829
88.82	1.8877
89.04	7.58677
89.26	17.9839
89.48	13.1467
89.7	19.1499
89.92	6.15255
