Measurement: Powder, Xray Data XY Processed
Mineral: Tilasite
Rruff sample: R050246
Ideal chemistry: CaMgAs^5+^O_4_F
Locality: Langban, Filipstad, Varmland, Sweden
Source: Marcus Origlieri
Description: Reddish-brown granular
Diffraction sample description: Powder
Measured chemistry: Ca_1.02_Mg_0.98_(As_1.00_O_4_)F_1.00_
Cell parameters: a: 6.6915(4) b: 8.9576(3) c: 7.5768(3) alpha: 90 beta: 121.130(4) gamma: 90 volume: 388.75(2) crystal system: monoclinic
x	intensity
5	0
5.22	8.83453
5.44	7.44934
5.66	3.09665
5.88	13.2497
6.1	13.9171
6.32	5.25457
6.54	12.4711
6.76	7.68823
6.98	5.46402
7.2	17.4315
7.42	9.92557
7.64	9.30535
7.86	7.82029
8.08	20.4348
8.3	12.2025
8.52	5.48875
8.74	47.6092
8.96	0.727859
9.18	9.92638
9.4	10.7623
9.62	3.62041
9.84	1.73657
10.06	20.0921
10.28	7.32451
10.5	13.3914
10.72	13.7596
10.94	5.78601
11.16	5.2503
11.38	1.65873
11.6	0.131769
11.82	10.9586
12.04	14.6974
12.26	4.84256
12.48	13.8022
12.7	10.5628
12.92	12.2844
13.14	5.00903
13.36	9.36387
13.58	16.2704
13.8	3.92913
14.02	1.72805
14.24	7.69086
14.46	13.0621
14.68	9.21612
14.9	10.1275
15.12	13.1152
15.34	12.4019
15.56	9.61017
15.78	8.5502
16	9.32179
16.22	9.23133
16.44	10.0516
16.66	3.12935
16.88	1.31444
17.1	5.19723
17.32	5.99205
17.54	53.7229
17.76	6.35116
17.98	0.318554
18.2	13.2538
18.42	181.146
18.64	9.11366
18.86	5.11106
19.08	3.23134
19.3	0.38452
19.52	16.596
19.74	18.6655
19.96	6.68452
20.18	7.59251
20.4	5.78505
20.62	11.238
20.84	14.3768
21.06	5.31777
21.28	4.35289
21.5	4.07348
21.72	5.24593
21.94	7.10117
22.16	0.02569
22.38	6.29959
22.6	8.43032
22.82	3.08308
23.04	18.7682
23.26	19.4073
23.48	1.8339
23.7	11.4245
23.92	14.9357
24.14	103.233
24.36	10.8315
24.58	6.57117
24.8	19.7103
25.02	7.23085
25.24	11.8577
25.46	17.5036
25.68	12.5682
25.9	14.3825
26.12	5.02402
26.34	13.8452
26.56	77.5592
26.78	12.4776
27	5.79823
27.22	20.5848
27.44	504.639
27.66	27.7086
27.88	18.6558
28.1	15.0395
28.32	2.26309
28.54	4.0923
28.76	2.50599
28.98	281.89
29.2	41.3776
29.42	21.8309
29.64	11.8548
29.86	22.692
30.08	2.80207
30.3	4.10185
30.52	11.4509
30.74	19.8665
30.96	19.9672
31.18	84.5423
31.4	29.0254
31.62	11.1747
31.84	4.08714
32.06	8.09271
32.28	0.061913
32.5	6.01078
32.72	9.94954
32.94	16.8205
33.16	21.437
33.38	287.232
33.6	76.7913
33.82	17.9464
34.04	46.1296
34.26	50.353
34.48	11.9544
34.7	3.63638
34.92	11.8111
35.14	17.0885
35.36	65.7113
35.58	9.65507
35.8	14.2048
36.02	9.22035
36.24	4.00049
36.46	6.96477
36.68	12.5845
36.9	3.81139
37.12	11.7257
37.34	13.949
37.56	8.3589
37.78	3.48128
38	11.464
38.22	8.92939
38.44	59.7882
38.66	9.8194
38.88	1.94709
39.1	5.90936
39.32	10.0333
39.54	15.5206
39.76	66.2326
39.98	13.6417
40.2	3.75325
40.42	1.02976
40.64	6.14372
40.86	9.27493
41.08	0.378833
41.3	15.4918
41.52	3.22543
41.74	6.94595
41.96	5.60019
42.18	1.03433
42.4	1.95046
42.62	15.5504
42.84	4.99033
43.06	93.3496
43.28	10.3638
43.5	12.4242
43.72	3.41007
43.94	7.77079
44.16	7.93691
44.38	4.05432
44.6	13.1706
44.82	4.70059
45.04	12.9414
45.26	6.50896
45.48	35.5425
45.7	16.4609
45.92	3.43193
46.14	3.21391
46.36	9.80217
46.58	12.4543
46.8	2.10858
47.02	9.71879
47.24	6.75733
47.46	46.4601
47.68	8.68693
47.9	7.63877
48.12	27.453
48.34	8.08521
48.56	16.0947
48.78	15.4428
49	9.76516
49.22	3.41236
49.44	27.6827
49.66	7.0051
49.88	1.04037
50.1	3.70788
50.32	3.30422
50.54	4.72632
50.76	5.72554
50.98	11.7584
51.2	5.43683
51.42	9.21608
51.64	10.7152
51.86	20.8615
52.08	11.0628
52.3	24.7875
52.52	105.342
52.74	9.58379
52.96	7.04462
53.18	1.72691
53.4	11.3231
53.62	2.59829
53.84	6.8752
54.06	7.12899
54.28	56.3873
54.5	6.64993
54.72	4.76649
54.94	3.9918
55.16	17.2042
55.38	4.39047
55.6	15.5944
55.82	7.75779
56.04	7.16887
56.26	0.622906
56.48	4.65784
56.7	20.339
56.92	3.09031
57.14	9.83237
57.36	0.548416
57.58	9.54432
57.8	36.2405
58.02	22.9943
58.24	4.76696
58.46	0.056239
58.68	7.01439
58.9	1.83502
59.12	42.6708
59.34	24.5577
59.56	11.9951
59.78	9.6107
60	9.54962
60.22	5.5577
60.44	9.62658
60.66	1.05612
60.88	9.78034
61.1	13.7474
61.32	24.1156
61.54	14.4292
61.76	9.6482
61.98	9.51985
62.2	14.3393
62.42	7.62943
62.64	13.6885
62.86	5.68061
63.08	2.41492
63.3	11.4884
63.52	9.05701
63.74	0.523142
63.96	25.3659
64.18	6.14533
64.4	7.74732
64.62	1.64421
64.84	0.72965
65.06	16.4985
65.28	33.7715
65.5	17.1107
65.72	21.8993
65.94	2.54979
66.16	2.90024
66.38	2.79255
66.6	0.529208
66.82	3.66168
67.04	5.87173
67.26	11.1066
67.48	6.28675
67.7	11.4024
67.92	26.0436
68.14	20.0048
68.36	8.21913
68.58	9.43208
68.8	8.20472
69.02	13.9527
69.24	15.7428
69.46	3.71902
69.68	10.6541
69.9	3.24236
70.12	14.9639
70.34	6.97437
70.56	6.01578
70.78	12.4205
71	3.40822
71.22	17.136
71.44	11.7002
71.66	4.34262
71.88	5.5363
72.1	1.67121
72.32	7.97897
72.54	14.2098
72.76	7.54884
72.98	10.8471
73.2	8.95706
73.42	16.0356
73.64	12.1686
73.86	4.18281
74.08	8.03619
74.3	13.1349
74.52	11.3172
74.74	5.57333
74.96	4.49059
75.18	13.4529
75.4	2.31532
75.62	1.8765
75.84	3.01228
76.06	15.724
76.28	23.9221
76.5	8.954
76.72	10.2132
76.94	13.4323
77.16	4.26167
77.38	3.29613
77.6	6.36581
77.82	4.43807
78.04	8.68276
78.26	7.72895
78.48	10.756
78.7	0.550232
78.92	4.7822
79.14	6.5407
79.36	7.35396
79.58	1.63191
79.8	1.83147
80.02	3.08026
80.24	2.57748
80.46	5.80419
80.68	4.83175
80.9	7.97841
81.12	5.11968
81.34	4.91744
81.56	9.91554
81.78	4.18595
82	18.1889
82.22	12.0767
82.44	4.7615
82.66	11.3833
82.88	2.93074
83.1	3.86543
83.32	3.62329
83.54	6.33162
83.76	2.27203
83.98	6.25698
84.2	5.79696
84.42	6.43241
84.64	5.2086
84.86	4.21752
85.08	6.59354
85.3	9.44852
85.52	24.7962
85.74	18.9627
85.96	6.36409
86.18	6.59682
86.4	10.8364
86.62	3.081
86.84	10.2815
87.06	11.4675
87.28	6.59376
87.5	9.61415
87.72	5.74873
87.94	6.73209
88.16	7.93946
88.38	2.76551
88.6	5.12376
88.82	4.22001
89.04	10.5576
89.26	3.93805
89.48	8.32823
89.7	1.21485
89.92	1.73869
