Measurement: Powder, Xray Data XY Processed
Mineral: Tilleyite
Rruff sample: R050227
Ideal chemistry: Ca_5_Si_2_O_7_(CO_3_)_2_
Locality: Crestmore Quarry, Riverside County, California, USA
Source: Marcus Origlieri
Description: Aggregate of colorless subhedral crystals
Diffraction sample description: Powder
Cell parameters: a: 15.0945(6) b: 10.2476(5) c: 7.5773(3) alpha: 90. beta: 105.156(4) gamma: 90. volume: 1131.31(6) crystal system: monoclinic
x	intensity
5	0
5.22	10.4978
5.44	7.64442
5.66	0.383522
5.88	1.35984
6.1	14.5907
6.32	8.07442
6.54	3.35963
6.76	15.8896
6.98	13.6523
7.2	4.27393
7.42	1.10103
7.64	8.68289
7.86	8.2953
8.08	1.15963
8.3	5.01452
8.52	6.45222
8.74	8.70141
8.96	4.99718
9.18	3.99469
9.4	0.712668
9.62	4.35665
9.84	11.4161
10.06	5.39515
10.28	9.62991
10.5	0.804843
10.72	4.21994
10.94	12.2183
11.16	7.16308
11.38	3.36969
11.6	3.24169
11.82	9.28461
12.04	8.31077
12.26	5.40637
12.48	8.41557
12.7	4.70126
12.92	0.821161
13.14	12.9445
13.36	5.06946
13.58	7.4232
13.8	0.293824
14.02	2.3756
14.24	4.34707
14.46	1.51132
14.68	6.6244
14.9	23.5076
15.12	5.5081
15.34	0.512532
15.56	2.68228
15.78	2.6352
16	5.60493
16.22	6.6342
16.44	12.8073
16.66	5.89365
16.88	4.86723
17.1	9.8242
17.32	4.80126
17.54	1.69456
17.76	5.59846
17.98	7.75818
18.2	7.81315
18.42	4.87818
18.64	3.13742
18.86	2.1744
19.08	5.29596
19.3	4.72759
19.52	0.075134
19.74	6.20934
19.96	0.620636
20.18	1.46787
20.4	1.61644
20.62	0.50935
20.84	1.43829
21.06	3.64342
21.28	7.72309
21.5	6.74852
21.72	3.5063
21.94	3.48712
22.16	3.31891
22.38	3.60675
22.6	4.8346
22.82	9.84545
23.04	8.81197
23.26	5.70741
23.48	4.73055
23.7	2.52767
23.92	2.50652
24.14	5.30469
24.36	16.1631
24.58	3.94649
24.8	0.517911
25.02	1.91888
25.24	18.7879
25.46	1.47378
25.68	3.11536
25.9	7.45876
26.12	1.04729
26.34	4.58966
26.56	8.8401
26.78	21.483
27	7.07482
27.22	0.028413
27.44	7.43175
27.66	0.658744
27.88	43.9368
28.1	60.5583
28.32	3.19403
28.54	4.7931
28.76	18.3493
28.98	66.4423
29.2	11.1277
29.42	58.9008
29.64	13.6137
29.86	173.377
30.08	90.6118
30.3	26.9665
30.52	5.38446
30.74	2.85669
30.96	8.3865
31.18	3.97171
31.4	16.7738
31.62	3.37653
31.84	17.5062
32.06	168.671
32.28	7.95241
32.5	6.25525
32.72	7.85572
32.94	4.34858
33.16	1.96331
33.38	1.22268
33.6	5.29331
33.82	3.06979
34.04	2.97809
34.26	3.28661
34.48	6.02713
34.7	1.58289
34.92	7.15632
35.14	21.8564
35.36	12.5687
35.58	33.4488
35.8	5.51325
36.02	53.6711
36.24	3.32904
36.46	8.5643
36.68	8.86083
36.9	4.70819
37.12	2.95698
37.34	4.11604
37.56	3.1713
37.78	4.12408
38	8.70157
38.22	3.656
38.44	11.2057
38.66	5.96959
38.88	9.82521
39.1	5.54324
39.32	2.19371
39.54	5.23644
39.76	4.35789
39.98	13.4806
40.2	12.8728
40.42	5.04667
40.64	2.13569
40.86	1.59994
41.08	4.88467
41.3	4.20941
41.52	3.21472
41.74	5.90925
41.96	5.88069
42.18	9.67914
42.4	0.436217
42.62	5.08274
42.84	30.8449
43.06	18.9936
43.28	43.5725
43.5	4.20863
43.72	1.89105
43.94	4.0293
44.16	6.28004
44.38	6.54598
44.6	15.8319
44.82	4.86521
45.04	3.86781
45.26	0.826588
45.48	5.09243
45.7	4.85326
45.92	12.5401
46.14	7.29693
46.36	3.73142
46.58	5.88044
46.8	8.28609
47.02	3.64852
47.24	8.28949
47.46	17.888
47.68	43.5253
47.9	11.5969
48.12	51.6875
48.34	8.98756
48.56	6.01016
48.78	3.17795
49	4.37097
49.22	4.03561
49.44	2.73
49.66	6.45414
49.88	18.6454
50.1	7.62321
50.32	4.7989
50.54	4.7657
50.76	20.7872
50.98	4.90314
51.2	16.0289
51.42	0.177608
51.64	1.00388
51.86	16.3291
52.08	7.5151
52.3	25.7369
52.52	5.02815
52.74	0.938263
52.96	3.21627
53.18	6.50357
53.4	22.0905
53.62	4.32679
53.84	1.47511
54.06	5.47294
54.28	1.54228
54.5	0.645011
54.72	1.70993
54.94	10.8309
55.16	9.94115
55.38	17.855
55.6	6.66144
55.82	2.18128
56.04	3.05331
56.26	0.944923
56.48	4.82439
56.7	9.6914
56.92	22.5635
57.14	19.9391
57.36	6.8964
57.58	5.61486
57.8	4.62417
58.02	6.76336
58.24	1.17952
58.46	4.48613
58.68	1.61992
58.9	6.9217
59.12	10.3014
59.34	7.66451
59.56	4.506
59.78	7.35796
60	0.500371
60.22	4.62136
60.44	6.84741
60.66	7.71718
60.88	5.80022
61.1	5.94958
61.32	7.03204
61.54	5.8031
61.76	6.67955
61.98	7.73592
62.2	2.82493
62.42	2.93615
62.64	4.02137
62.86	6.92244
63.08	9.79389
63.3	2.61005
63.52	2.56947
63.74	3.40517
63.96	7.40083
64.18	4.56306
64.4	3.51116
64.62	13.4251
64.84	9.43526
65.06	5.52405
65.28	0.478135
65.5	3.61945
65.72	3.58218
65.94	0.40663
66.16	1.59181
66.38	1.51783
66.6	3.36022
66.82	5.37763
67.04	2.41124
67.26	0.213378
67.48	4.97283
67.7	7.87667
67.92	3.76916
68.14	4.7831
68.36	5.85176
68.58	9.08473
68.8	3.32278
69.02	7.33841
69.24	14.4999
69.46	6.67918
69.68	0.919354
69.9	5.13248
70.12	6.32695
70.34	3.4157
70.56	3.54579
70.78	0.557039
71	5.22776
71.22	0.217623
71.44	5.3092
71.66	7.3614
71.88	2.15741
72.1	8.14508
72.32	10.0816
72.54	5.02072
72.76	0.949239
72.98	1.9524
73.2	5.91724
73.42	0.914168
73.64	4.03188
73.86	3.96838
74.08	3.83874
74.3	5.91075
74.52	2.09304
74.74	5.10848
74.96	3.99694
75.18	3.02196
75.4	1.17646
75.62	2.7349
75.84	4.31855
76.06	3.122
76.28	7.25395
76.5	0.591227
76.72	4.32006
76.94	8.95776
77.16	4.93569
77.38	1.88892
77.6	0.222182
77.82	7.60224
78.04	2.52554
78.26	2.35195
78.48	6.25647
78.7	5.21354
78.92	0.117745
79.14	2.83192
79.36	2.9132
79.58	5.0272
79.8	2.14628
80.02	4.16465
80.24	3.12389
80.46	1.21334
80.68	3.34049
80.9	4.42837
81.12	10.3176
81.34	5.36921
81.56	3.53906
81.78	0.485095
82	1.42746
82.22	3.48825
82.44	3.58642
82.66	4.93083
82.88	0.92574
83.1	2.92311
83.32	2.10824
83.54	2.27066
83.76	4.33559
83.98	9.26603
84.2	7.40324
84.42	2.17545
84.64	5.30288
84.86	0.339875
85.08	1.97769
85.3	3.91239
85.52	3.83986
85.74	2.6428
85.96	0.438864
86.18	4.52292
86.4	6.39019
86.62	1.41551
86.84	4.62491
87.06	4.77499
87.28	4.84944
87.5	8.07348
87.72	3.21854
87.94	0.650543
88.16	0.490438
88.38	3.61462
88.6	3.89174
88.82	4.95299
89.04	3.92613
89.26	1.86583
89.48	5.83308
89.7	0.966698
89.92	5.70319
