Measurement: Powder, Xray Data XY Processed
Mineral: Tinticite
Rruff sample: R190028
Ideal chemistry: Fe^3+^_3_(PO_4_)_2_(OH)_3_3H_2_O
Locality: Rocabruna mines, Bruguers, Gavà, Baix Llobregat, Barcelona, Catalonia, Spain
Source: Joan Rosell, Jordi Ibáñez (CSIC-ITJA), Tariq Jawhari (CCiTUB)
Description: White, fine-grained spherical aggregate
Diffraction sample description: Powder, with some quartz
Measured chemistry: (Fe^3+^_4.61_Al_0.45_)(P_0.97_V_0.03_O_4_)_4_(OH)_3_·4.8H_2_O
Cell parameters: a: 7.9501(7) b: 9.974(1) c: 7.634(1) alpha: 103.86(1) beta: 115.835(9) gamma: 67.855(7) volume: 502.57(6) crystal system: triclinic
x	intensity
4.0001	0
4.14122	10.0791
4.28234	173.438
4.42346	269.432
4.56458	158.501
4.7057	108.946
4.84682	192.426
4.98794	299.022
5.12906	240.61
5.27018	116.21
5.4113	205.652
5.55242	245.715
5.69354	425.126
5.83466	396.692
5.97578	254.302
6.1169	130.284
6.25802	287.884
6.39914	361.906
6.54026	359.716
6.68138	347.479
6.8225	284.268
6.96362	169.1
7.10474	327.975
7.24586	400.875
7.38698	238.791
7.5281	413.742
7.66922	274.64
7.81034	378.45
7.95146	311.142
8.09258	297.306
8.2337	362.566
8.37482	411.86
8.51594	251.463
8.65706	309.031
8.79818	327.288
8.9393	420.009
9.08042	474.931
9.22154	405.059
9.36266	124.137
9.50378	532.054
9.6449	348.745
9.78602	379.262
9.92714	266.465
10.0683	372.312
10.2094	238.805
10.3505	272.883
10.4916	414.511
10.6327	184.636
10.7739	194.773
10.915	181.471
11.0561	289.22
11.1972	209.463
11.3383	195.182
11.4795	70.3628
11.6206	60.9868
11.7617	202.144
11.9028	177.394
12.0439	40.3511
12.1851	173.555
12.3262	61.356
12.4673	158.952
12.6084	97.5444
12.7495	420.535
12.8907	2192.14
13.0318	1251.48
13.1729	225.234
13.314	341.831
13.4551	700.049
13.5963	1025.76
13.7374	270.959
13.8785	78.1685
14.0196	194.922
14.1607	360.757
14.3019	1466.84
14.443	3091.7
14.5841	121.225
14.7252	311.957
14.8663	62.8818
15.0075	110.962
15.1486	129.174
15.2897	1167.53
15.4308	5037.11
15.5719	476.847
15.7131	231.774
15.8542	138.753
15.9953	41.8306
16.1364	110.342
16.2775	40.0527
16.4187	244.082
16.5598	30.3564
16.7009	168.804
16.842	246.4
16.9831	1.35303
17.1243	79
17.2654	127.195
17.4065	209.517
17.5476	131.968
17.6887	77.0195
17.8299	4.93799
17.971	119.733
18.1121	76.3979
18.2532	158.818
18.3943	307.135
18.5355	10.6494
18.6766	184.364
18.8177	386.263
18.9588	211.079
19.0999	492.806
19.2411	3124.92
19.3822	1780.87
19.5233	748.642
19.6644	290.854
19.8055	155.145
19.9467	329.975
20.0878	1049.04
20.2289	318.106
20.37	135.641
20.5111	7.03076
20.6523	13.855
20.7934	44.6802
20.9345	96.1191
21.0756	230.842
21.2167	158.777
21.3579	273.412
21.499	303.164
21.6401	478.081
21.7812	147.002
21.9223	319.493
22.0635	315.468
22.2046	968.533
22.3457	1995.6
22.4868	5097.26
22.6279	3562.95
22.7691	872.949
22.9102	348.361
23.0513	67.7798
23.1924	130.286
23.3335	135.691
23.4747	301.088
23.6158	200.381
23.7569	124.562
23.898	36.4702
24.0391	192.228
24.1803	29.8018
24.3214	99.3106
24.4625	85.6836
24.6036	113.128
24.7447	189.248
24.8859	177.879
25.027	15.8315
25.1681	15.6753
25.3092	18.7983
25.4503	190.441
25.5915	107.284
25.7326	142.72
25.8737	91.9385
26.0148	210.282
26.1559	260.721
26.2971	301.157
26.4382	384.813
26.5793	896.268
26.7204	2415.05
26.8615	2586.53
27.0027	5249.99
27.1438	1577.68
27.2849	1296.78
27.426	831.813
27.5671	420.173
27.7083	468.653
27.8494	1002.67
27.9905	1183.62
28.1316	1841.4
28.2727	410.835
28.4139	446.884
28.555	561.332
28.6961	572.181
28.8372	510.313
28.9783	1431.08
29.1195	1358.8
29.2606	686.898
29.4017	1448.07
29.5428	5594.19
29.6839	1715.48
29.8251	1337.85
29.9662	2468.32
30.1073	1610.85
30.2484	314.491
30.3895	267.194
30.5307	83.9507
30.6718	210.654
30.8129	104.326
30.954	155.059
31.0951	168.001
31.2363	5.88769
31.3774	88.7202
31.5185	256.037
31.6596	54.5615
31.8007	98.082
31.9419	118.476
32.083	111.886
32.2241	134.34
32.3652	80.9287
32.5063	150.582
32.6475	333.319
32.7886	575.345
32.9297	265.282
33.0708	405.907
33.2119	242.245
33.3531	188.786
33.4942	222.47
33.6353	379.272
33.7764	304.345
33.9175	527.505
34.0587	341.725
34.1998	201.001
34.3409	161.163
34.482	732.336
34.6231	408.771
34.7643	193.253
34.9054	141.557
35.0465	410.138
35.1876	588.364
35.3287	601.914
35.4699	397.174
35.611	554.922
35.7521	93.0581
35.8932	83.3213
36.0343	171.22
36.1755	28.1235
36.3166	411.668
36.4577	589.051
36.5988	327.81
36.7399	381.383
36.8811	18.916
37.0222	148.537
37.1633	267.113
37.3044	150.716
37.4455	485.332
37.5867	928.42
37.7278	331.076
37.8689	275.507
38.01	924.16
38.1511	1369.84
38.2923	773.509
38.4334	314.179
38.5745	11.1841
38.7156	99.3364
38.8567	182.847
38.9979	176.345
39.139	137.91
39.2801	125.478
39.4212	91.0337
39.5623	155.059
39.7035	260.089
39.8446	546.035
39.9857	303.266
40.1268	354.606
40.2679	502.726
40.4091	17.5806
40.5502	68.3833
40.6913	96.9062
40.8324	346.378
40.9735	84.6538
41.1147	405.853
41.2558	236.788
41.3969	247.849
41.538	157.301
41.6791	154.262
41.8203	50.0542
41.9614	192.707
42.1025	75.7363
42.2436	124.451
42.3847	229.594
42.5259	905.719
42.667	1072.79
42.8081	774.184
42.9492	623.145
43.0903	650.056
43.2315	1240.91
43.3726	604.721
43.5137	58.4736
43.6548	153.345
43.7959	43.1338
43.9371	71.0776
44.0782	303.797
44.2193	232.281
44.3604	34.9194
44.5015	84.4824
44.6427	16.1079
44.7838	45.439
44.9249	74.1436
45.066	133.603
45.2071	456.992
45.3483	480.4
45.4894	263.732
45.6305	599.098
45.7716	1147.52
45.9127	1006.01
46.0539	529.031
46.195	375.491
46.3361	275.278
46.4772	600.765
46.6183	1245.02
46.7595	916.533
46.9006	335.029
47.0417	239.657
47.1828	180.195
47.3239	103.721
47.4651	462.235
47.6062	391.757
47.7473	314.122
47.8884	354.012
48.0295	51.0078
48.1707	207.231
48.3118	30.7515
48.4529	553.038
48.594	307.76
48.7351	171.796
48.8763	188.55
49.0174	275.053
49.1585	310.097
49.2996	127.812
49.4407	65.6826
49.5819	254.576
49.723	320.256
49.8641	227.834
50.0052	401.041
50.1463	239.322
50.2875	359.358
50.4286	126.567
50.5697	192.317
50.7108	291.563
50.8519	85.7671
50.9931	60.9062
51.1342	253.018
51.2753	89.0952
51.4164	227.128
51.5575	420.128
51.6987	282.111
51.8398	161.316
51.9809	26.7544
52.122	71.6318
52.2631	183.356
52.4043	79.2559
52.5454	205.733
52.6865	353.58
52.8276	128.979
52.9687	44.9009
53.1099	269.77
53.251	506.158
53.3921	603.779
53.5332	728.655
53.6743	402.43
53.8155	271.185
53.9566	15.7715
54.0977	53.7759
54.2388	77.4995
54.3799	151.727
54.5211	141.3
54.6622	36.2402
54.8033	48.1606
54.9444	126.536
55.0855	423.073
55.2267	454.843
55.3678	305.994
55.5089	475.696
55.65	608.28
55.7911	257.006
55.9323	165.862
56.0734	35.4473
56.2145	189.879
56.3556	10.8042
56.4967	172.633
56.6379	279.188
56.779	138.602
56.9201	59.9785
57.0612	133.809
57.2023	124.698
57.3435	42.2788
57.4846	136.299
57.6257	270.919
57.7668	348.665
57.9079	221.609
58.0491	239.879
58.1902	429.675
58.3313	198.017
58.4724	74.2656
58.6135	183.521
58.7547	120.845
58.8958	20.0278
59.0369	176.762
59.178	345.838
59.3191	575.062
59.4603	670.397
59.6014	658.215
59.7425	298.62
59.8836	3.03662
