Measurement: Powder, Xray Data XY Processed
Mineral: Titanite
Rruff sample: R040033
Ideal chemistry: CaTi^4+^SiO_5_
Locality: Brazil
Source: University of Arizona Mineral Museum
Description: Green flattened wedge-shaped single crystals
Diffraction sample description: Powder
Measured chemistry: (Ca_0.97_Fe^3+^_0.03_)_Σ=1_(Ti_0.97_Al_0.03_)_Σ=1_Si_1.00_O_5_; Fe^3+^ assigned for charge balance
Cell parameters: a: 7.0673(4) b: 8.6992(4) c: 6.5551(2) alpha: 90 beta: 113.920(3) gamma: 90 volume: 368.39(2) crystal system: monoclinic
x	intensity
5	0
5.22	13.496
5.44	5.584
5.66	2.649
5.88	21.887
6.1	20.699
6.32	8.21
6.54	8.677
6.76	15.174
6.98	4.845
7.2	8.455
7.42	6.085
7.64	18.637
7.86	4.213
8.08	9.175
8.3	6.509
8.52	10.108
8.74	0.54
8.96	1.737
9.18	8.097
9.4	4.41
9.62	2.804
9.84	9.075
10.06	4.734
10.28	10.941
10.5	15.221
10.72	6.205
10.94	17.226
11.16	3.388
11.38	11.497
11.6	3.756
11.82	6.858
12.04	5.842
12.26	5.911
12.48	5.772
12.7	3.677
12.92	10.579
13.14	7.696
13.36	6.158
13.58	6.582
13.8	6.705
14.02	8.819
14.24	4.919
14.46	2.571
14.68	9.703
14.9	4.856
15.12	5.847
15.34	1.911
15.56	6.93
15.78	2.706
16	7.422
16.22	14.282
16.44	2.304
16.66	0.211
16.88	10.659
17.1	1.521
17.32	1.248
17.54	4.182
17.76	4.344
17.98	109.549
18.2	6.443
18.42	11.376
18.64	7.493
18.86	9.416
19.08	6.734
19.3	11.878
19.52	6.145
19.74	6.445
19.96	1.583
20.18	10.455
20.4	12.51
20.62	14.742
20.84	3.839
21.06	5.048
21.28	8.358
21.5	5.312
21.72	2.35
21.94	9.286
22.16	0.446
22.38	8.37
22.6	6.598
22.82	8.466
23.04	11.548
23.26	3.542
23.48	1.131
23.7	5.879
23.92	3.611
24.14	12.462
24.36	3.231
24.58	0.984
24.8	8.971
25.02	3.886
25.24	13.005
25.46	2.913
25.68	10.681
25.9	12.286
26.12	9.037
26.34	0.179
26.56	1.599
26.78	0.655
27	12.898
27.22	11.565
27.44	80.759
27.66	171.867
27.88	24.655
28.1	9.693
28.32	7.778
28.54	5.852
28.76	10.86
28.98	3.863
29.2	8.211
29.42	2.177
29.64	13.457
29.86	395.872
30.08	24.89
30.3	4.045
30.52	3.023
30.74	6.342
30.96	8.785
31.18	6.214
31.4	19.709
31.62	4.888
31.84	4.975
32.06	19.832
32.28	13.119
32.5	6.08
32.72	1.54
32.94	1.491
33.16	1.246
33.38	2.869
33.6	9.554
33.82	6.198
34.04	23.854
34.26	40.02
34.48	234.199
34.7	112.116
34.92	7.013
35.14	4.382
35.36	11.678
35.58	7.329
35.8	7.793
36.02	7.141
36.24	5.817
36.46	8.343
36.68	1.558
36.9	6.579
37.12	6.759
37.34	11.666
37.56	3.428
37.78	19.409
38	12.195
38.22	7.88
38.44	4.498
38.66	6.128
38.88	5.549
39.1	7.601
39.32	0.497
39.54	43.454
39.76	41.717
39.98	2.8
40.2	2.807
40.42	18.06
40.64	9.303
40.86	1.511
41.08	6.702
41.3	2.346
41.52	6.473
41.74	5.463
41.96	8.313
42.18	2.823
42.4	1.39
42.62	3.374
42.84	11.031
43.06	22.862
43.28	11.806
43.5	19.802
43.72	17.874
43.94	122.894
44.16	5.444
44.38	6.598
44.6	11.92
44.82	6.088
45.04	5.206
45.26	8.437
45.48	6.472
45.7	2.481
45.92	10.447
46.14	0.791
46.36	0.153
46.58	7.646
46.8	18.939
47.02	5.771
47.24	4.883
47.46	0.949
47.68	7.864
47.9	12.311
48.12	7.325
48.34	7.272
48.56	4.579
48.78	6.356
49	1.137
49.22	13.933
49.44	10.894
49.66	9.746
49.88	7.828
50.1	1.354
50.32	8.055
50.54	25.917
50.76	30.054
50.98	2.51
51.2	4.035
51.42	0.401
51.64	3.293
51.86	1.846
52.08	10.437
52.3	59.893
52.52	36.077
52.74	1.24
52.96	20.688
53.18	28.175
53.4	11.738
53.62	29.388
53.84	40.031
54.06	12.624
54.28	4.912
54.5	0.66
54.72	1.97
54.94	7.194
55.16	9.322
55.38	3.484
55.6	5.875
55.82	29.81
56.04	61.537
56.26	6.125
56.48	2.313
56.7	4.706
56.92	5.841
57.14	10.157
57.36	3.736
57.58	0.943
57.8	6.047
58.02	11.321
58.24	6.148
58.46	7.117
58.68	4.045
58.9	5.869
59.12	12.9
59.34	33.555
59.56	8.387
59.78	0.094
60	7.432
60.22	4.674
60.44	22.438
60.66	42.369
60.88	3.338
61.1	8.29
61.32	0.963
61.54	2.012
61.76	15.99
61.98	53.104
62.2	39.956
62.42	1.033
62.64	7.125
62.86	3.204
63.08	2.489
63.3	2.751
63.52	2.017
63.74	1.007
63.96	3.729
64.18	3.582
64.4	4.408
64.62	2.005
64.84	2.474
65.06	10.892
65.28	2.711
65.5	8.504
65.72	46.345
65.94	31.211
66.16	19.622
66.38	16.936
66.6	8.56
66.82	3.01
67.04	5.405
67.26	2.835
67.48	0.483
67.7	4.769
67.92	5.889
68.14	4.133
68.36	0.156
68.58	1.893
68.8	6.78
69.02	5.425
69.24	8.175
69.46	4.113
69.68	9.161
69.9	9.894
70.12	8.178
70.34	4.397
70.56	4.188
70.78	2.575
71	0.437
71.22	1.543
71.44	3.587
71.66	7.412
71.88	3.378
72.1	4.329
72.32	18.317
72.54	20.329
72.76	5.429
72.98	7.562
73.2	1.612
73.42	0.509
73.64	10.761
73.86	10.992
74.08	3.154
74.3	23.278
74.52	12.509
74.74	8.855
74.96	4.766
75.18	0.716
75.4	12.686
75.62	3.736
75.84	4.939
76.06	2.745
76.28	11.549
76.5	7.382
76.72	3.091
76.94	6.886
77.16	4.507
77.38	6.491
77.6	8.248
77.82	8.213
78.04	3.335
78.26	2.248
78.48	0.474
78.7	1.666
78.92	4.886
79.14	2.346
79.36	1.52
79.58	6.606
79.8	8.779
80.02	0.878
80.24	3.894
80.46	0.824
80.68	0.207
80.9	2.736
81.12	6.722
81.34	3.86
81.56	4.703
81.78	3.412
82	3.63
82.22	6.4
82.44	3.429
82.66	2.484
82.88	2.465
83.1	1.408
83.32	2.333
83.54	6.116
83.76	7.846
83.98	11.663
84.2	8.109
84.42	2.758
84.64	11.606
84.86	6.481
85.08	3.329
85.3	3.338
85.52	9.645
85.74	12.826
85.96	12.807
86.18	1.861
86.4	0.526
86.62	7.447
86.84	0.52
87.06	4.514
87.28	9.532
87.5	7.615
87.72	13.709
87.94	2.655
88.16	13.64
88.38	8.877
88.6	6.199
88.82	5.479
89.04	5.828
89.26	11.421
89.48	5.926
89.7	7.777
89.92	1.733
