Measurement: Powder, Xray Data XY Processed
Mineral: Titanite
Rruff sample: R050114
Ideal chemistry: CaTi^4+^SiO_5_
Locality: Isthak Valley Iskardu, Northern Areas Gilgit, Pakistan
Source: Syed Shah
Description: Yellowish-brown fragment
Diffraction sample description: Powder
Measured chemistry: (Ca_0.99_Na_0.01_)(Ti_0.96_Al_0.03_Fe^3+^_0.01_)Si_1.00_O_4_(O_0.95_F_0.05_)
Cell parameters: a: 7.0581(2) b: 8.7014(3) c: 6.5517(2) alpha: 90. beta: 113.855(2) gamma: 90. volume: 368.00(1) crystal system: monoclinic
x	intensity
5	0
5.22	11.621
5.44	8.688
5.66	14.428
5.88	0.503
6.1	11.712
6.32	1.324
6.54	10.72
6.76	3.083
6.98	5.127
7.2	10.127
7.42	5.732
7.64	1.144
7.86	14.882
8.08	10.193
8.3	5.524
8.52	7.936
8.74	1.964
8.96	4.972
9.18	6.991
9.4	5.296
9.62	1.672
9.84	5.961
10.06	6.053
10.28	3.836
10.5	0.102
10.72	10.928
10.94	3.925
11.16	6.013
11.38	12.178
11.6	5.495
11.82	2.559
12.04	8.58
12.26	4.339
12.48	9.573
12.7	8.612
12.92	7.674
13.14	1.673
13.36	1.781
13.58	6.816
13.8	1.062
14.02	3.048
14.24	0.93
14.46	6.107
14.68	1.219
14.9	6.248
15.12	10.296
15.34	7.573
15.56	2.813
15.78	8.979
16	5.186
16.22	6.177
16.44	4.213
16.66	7.463
16.88	1.4
17.1	6.505
17.32	4.656
17.54	0.202
17.76	4.936
17.98	88.217
18.2	1.256
18.42	3.301
18.64	12.24
18.86	6.537
19.08	5.51
19.3	5.66
19.52	5.735
19.74	3.8
19.96	3.908
20.18	2.882
20.4	2.743
20.62	1.766
20.84	2.763
21.06	6.836
21.28	5.675
21.5	4.659
21.72	4.601
21.94	10.599
22.16	8.566
22.38	1.218
22.6	3.742
22.82	6.657
23.04	1.873
23.26	2.895
23.48	0.979
23.7	1.948
23.92	2.969
24.14	1.289
24.36	1.314
24.58	0.219
24.8	9.905
25.02	2.906
25.24	1.776
25.46	0.665
25.68	3.339
25.9	7.274
26.12	7.994
26.34	4.702
26.56	4.083
26.78	2.769
27	3.57
27.22	1.373
27.44	52.308
27.66	103.204
27.88	13.225
28.1	5.412
28.32	1.539
28.54	2.634
28.76	4.712
28.98	4.802
29.2	4.848
29.42	1.05
29.64	17.176
29.86	325.011
30.08	14.006
30.3	1.712
30.52	4.573
30.74	0.592
30.96	11.881
31.18	4.031
31.4	6.604
31.62	12.826
31.84	6.251
32.06	6.398
32.28	8.566
32.5	8.707
32.72	3.799
32.94	2.122
33.16	0.426
33.38	4.274
33.6	3.021
33.82	1.477
34.04	4.227
34.26	27.035
34.48	107.162
34.7	152.065
34.92	9.255
35.14	7.429
35.36	3.619
35.58	1.034
35.8	8.18
36.02	5.456
36.24	1.773
36.46	5.921
36.68	6.831
36.9	7.82
37.12	1.909
37.34	4.843
37.56	1.643
37.78	7.195
38	10.161
38.22	8.054
38.44	0.021
38.66	3.776
38.88	5.774
39.1	3.902
39.32	12.802
39.54	40.7
39.76	41.724
39.98	5.736
40.2	3.297
40.42	19.145
40.64	7.215
40.86	3.305
41.08	3.354
41.3	7.151
41.52	11.327
41.74	3.191
41.96	3.974
42.18	0.497
42.4	5.269
42.62	1.016
42.84	15.823
43.06	18.589
43.28	11.257
43.5	17.821
43.72	24.08
43.94	280.048
44.16	3.204
44.38	7.461
44.6	4.713
44.82	2.074
45.04	3.281
45.26	8.353
45.48	2.429
45.7	6.412
45.92	9.032
46.14	5.907
46.36	3.614
46.58	4.502
46.8	17.435
47.02	3.32
47.24	0.664
47.46	1.055
47.68	1.042
47.9	5.021
48.12	2
48.34	2.821
48.56	5.749
48.78	3.184
49	1.229
49.22	2.15
49.44	8.235
49.66	9.168
49.88	4.403
50.1	6.773
50.32	4.908
50.54	19.001
50.76	8.224
50.98	4.146
51.2	2.827
51.42	4.603
51.64	4.362
51.86	1.084
52.08	7.781
52.3	10.318
52.52	26.745
52.74	4.497
52.96	26.465
53.18	9.428
53.4	14.579
53.62	16.967
53.84	23.29
54.06	2.296
54.28	2.241
54.5	6.597
54.72	1.918
54.94	9.172
55.16	7.432
55.38	7.634
55.6	4.722
55.82	24.541
56.04	88.265
56.26	2.293
56.48	4.47
56.7	4.327
56.92	3.42
57.14	6.51
57.36	2.619
57.58	0.05
57.8	1.876
58.02	2.818
58.24	1.808
58.46	2.855
58.68	0.035
58.9	6.974
59.12	3.987
59.34	34.943
59.56	10.929
59.78	3.914
60	2.817
60.22	4.943
60.44	9.903
60.66	16.826
60.88	1.751
61.1	1.48
61.32	1.624
61.54	2.358
61.76	8.324
61.98	24.29
62.2	29.564
62.42	2.698
62.64	3.602
62.86	1.763
63.08	3.825
63.3	5.886
63.52	6.939
63.74	0.104
63.96	1.97
64.18	19.049
64.4	5.112
64.62	6.726
64.84	10.294
65.06	3.101
65.28	4.907
65.5	1.889
65.72	53.196
65.94	15.228
66.16	9.278
66.38	16.559
66.6	5.914
66.82	2.196
67.04	4.396
67.26	5.669
67.48	1.93
67.7	1.091
67.92	0.872
68.14	3.103
68.36	6.158
68.58	3.087
68.8	2.998
69.02	2.703
69.24	3.694
69.46	5.897
69.68	9.969
69.9	6.921
70.12	0.005
70.34	0.096
70.56	5.049
70.78	5.177
71	7.082
71.22	6.976
71.44	4.784
71.66	0.541
71.88	3.218
72.1	2.943
72.32	24.805
72.54	11.757
72.76	0.948
72.98	3.877
73.2	3.692
73.42	3.746
73.64	1.888
73.86	0.986
74.08	0.13
74.3	73.235
74.52	42.441
74.74	0.367
74.96	5.868
75.18	3.612
75.4	1.672
75.62	1.997
75.84	7.117
76.06	1.838
76.28	5.167
76.5	12.338
76.72	2.359
76.94	5.205
77.16	3.187
77.38	5.11
77.6	2.097
77.82	8.194
78.04	6.017
78.26	8.033
78.48	2.99
78.7	4.119
78.92	0.066
79.14	0.125
79.36	1.399
79.58	4.345
79.8	4.212
80.02	1.061
80.24	6.022
80.46	1.077
80.68	0.843
80.9	21.769
81.12	6.757
81.34	0.641
81.56	5.4
81.78	0.578
82	0.117
82.22	1.072
82.44	2.12
82.66	1.227
82.88	3.28
83.1	5.284
83.32	2.273
83.54	4.249
83.76	5.199
83.98	2.443
84.2	2.082
84.42	5.914
84.64	6.809
84.86	4.729
85.08	1.841
85.3	3.869
85.52	9.923
85.74	9.872
85.96	9.132
86.18	2.075
86.4	2.645
86.62	8.506
86.84	1.356
87.06	3.282
87.28	7.189
87.5	1.971
87.72	6.941
87.94	4.03
88.16	125.066
88.38	17.037
88.6	13.232
88.82	6.404
89.04	4.689
89.26	1.114
89.48	3.585
89.7	0.721
89.92	6.883
