Measurement: Powder, Xray Data XY Processed
Mineral: Titanite
Rruff sample: R050472
Ideal chemistry: CaTi^4+^SiO_5_
Locality: Turner's Island, Lake Clear, Wadawaska, Ontario, Canada
Source: California Institute of Technology
Description: Brown flattened wedge-shaped crystal
Diffraction sample description: Powder
Measured chemistry: (Ca_0.99_Na_0.01_)(Ti_0.81_Al_0.09_Fe^3+^_0.07_Nb_0.03_)Si_1.00_O_4_(O_0.80_F_0.20_)
Cell parameters: a: 7.0736(8) b: 8.7109(5) c: 6.5582(5) alpha: 90. beta: 113.950(6) gamma: 90. volume: 369.31(3) crystal system: monoclinic
x	intensity
5	0
5.22	9.97305
5.44	9.23995
5.66	8.21518
5.88	9.512
6.1	6.55674
6.32	9.37433
6.54	8.885
6.76	3.92126
6.98	9.08705
7.2	3.16736
7.42	5.5834
7.64	9.49864
7.86	8.1045
8.08	13.5069
8.3	0.875695
8.52	1.59603
8.74	4.14532
8.96	8.78637
9.18	6.0983
9.4	2.45846
9.62	2.3514
9.84	1.28515
10.06	1.34685
10.28	1.39484
10.5	6.51603
10.72	7.57256
10.94	5.69034
11.16	8.40672
11.38	9.44717
11.6	5.36069
11.82	10.3522
12.04	4.10884
12.26	4.06564
12.48	5.77683
12.7	2.86878
12.92	10.7034
13.14	2.70804
13.36	3.04298
13.58	13.0678
13.8	12.0939
14.02	1.27276
14.24	6.28543
14.46	3.48346
14.68	6.72356
14.9	6.8446
15.12	9.83284
15.34	5.15022
15.56	4.63001
15.78	8.34748
16	2.49858
16.22	3.7139
16.44	7.72614
16.66	5.79734
16.88	2.73753
17.1	5.52503
17.32	8.52387
17.54	5.68451
17.76	11.6165
17.98	198.313
18.2	12.4506
18.42	0.602027
18.64	0.712086
18.86	1.84898
19.08	2.95473
19.3	4.12267
19.52	7.26255
19.74	6.55762
19.96	8.54935
20.18	0.912089
20.4	7.12206
20.62	8.06751
20.84	8.2063
21.06	7.12453
21.28	0.618482
21.5	7.96598
21.72	6.01681
21.94	5.09182
22.16	8.07229
22.38	8.16152
22.6	6.86838
22.82	4.82082
23.04	6.86775
23.26	4.27316
23.48	9.02975
23.7	1.94607
23.92	3.63568
24.14	4.61376
24.36	5.61786
24.58	4.63986
24.8	14.7055
25.02	4.71977
25.24	3.80327
25.46	8.50169
25.68	5.75168
25.9	2.31763
26.12	8.98216
26.34	3.64546
26.56	13.2871
26.78	5.75945
27	4.44978
27.22	4.21369
27.44	157.129
27.66	19.9173
27.88	0.069572
28.1	3.23594
28.32	5.66261
28.54	1.29941
28.76	6.72119
28.98	5.73026
29.2	2.91389
29.42	4.64779
29.64	8.78464
29.86	87.4359
30.08	18.124
30.3	3.81383
30.52	5.45066
30.74	0.66531
30.96	2.52199
31.18	6.93691
31.4	90.1555
31.62	8.82017
31.84	0.741131
32.06	6.47685
32.28	2.80237
32.5	5.24709
32.72	5.61308
32.94	3.64378
33.16	4.53993
33.38	9.56205
33.6	4.26879
33.82	3.52132
34.04	16.9867
34.26	48.9349
34.48	32.694
34.7	21.7825
34.92	6.58792
35.14	1.40411
35.36	0.661182
35.58	0.780113
35.8	3.36644
36.02	6.67261
36.24	10.5176
36.46	3.54351
36.68	6.67058
36.9	0.233736
37.12	12.6833
37.34	2.97467
37.56	7.77382
37.78	7.81139
38	12.7369
38.22	3.1563
38.44	1.14969
38.66	7.67542
38.88	1.31832
39.1	8.35569
39.32	9.48075
39.54	29.4786
39.76	19.3679
39.98	9.71132
40.2	6.77637
40.42	12.0153
40.64	7.26451
40.86	4.78373
41.08	13.074
41.3	3.4157
41.52	6.29753
41.74	10.2047
41.96	12.1022
42.18	1.23921
42.4	10.3394
42.62	4.04996
42.84	31.6704
43.06	3.52856
43.28	8.07503
43.5	10.8606
43.72	27.5673
43.94	12.873
44.16	3.95881
44.38	5.09991
44.6	6.38063
44.82	1.34247
45.04	3.85132
45.26	0.873687
45.48	2.70375
45.7	17.5126
45.92	1.45848
46.14	3.32859
46.36	10.838
46.58	112.684
46.8	55.379
47.02	7.62052
47.24	5.4441
47.46	0.629726
47.68	6.37664
47.9	5.40803
48.12	4.66286
48.34	0.371833
48.56	7.70436
48.78	6.65193
49	0.900721
49.22	8.97734
49.44	7.71243
49.66	3.67997
49.88	5.93151
50.1	10.1791
50.32	9.47919
50.54	21.7434
50.76	9.94005
50.98	2.19216
51.2	5.77436
51.42	1.63401
51.64	3.37751
51.86	10.2361
52.08	3.15438
52.3	4.8364
52.52	6.43581
52.74	1.36131
52.96	12.3049
53.18	4.28035
53.4	6.41494
53.62	11.0114
53.84	29.2511
54.06	2.45683
54.28	4.81812
54.5	3.98572
54.72	3.08025
54.94	8.17047
55.16	4.24917
55.38	4.25399
55.6	6.05905
55.82	61.1587
56.04	17.7742
56.26	12.9937
56.48	12.2871
56.7	9.27252
56.92	0.673379
57.14	4.81382
57.36	8.13361
57.58	3.4332
57.8	0.265217
58.02	2.34355
58.24	0.759377
58.46	3.1894
58.68	10.1494
58.9	0.958347
59.12	10.151
59.34	12.8226
59.56	2.29204
59.78	0.251326
60	3.06712
60.22	4.95697
60.44	18.802
60.66	12.6955
60.88	3.6097
61.1	2.39757
61.32	6.14619
61.54	15.9589
61.76	13.2297
61.98	18.3719
62.2	8.65663
62.42	0.133728
62.64	0.127271
62.86	11.3769
63.08	1.93994
63.3	1.73364
63.52	0.319448
63.74	10.2494
63.96	4.04953
64.18	2.31717
64.4	1.25802
64.62	1.31586
64.84	9.29969
65.06	9.89314
65.28	14.647
65.5	295.076
65.72	84.424
65.94	13.6954
66.16	3.95006
66.38	11.201
66.6	7.63597
66.82	7.0939
67.04	3.48924
67.26	5.84642
67.48	4.2053
67.7	8.70115
67.92	5.3399
68.14	6.03155
68.36	2.07306
68.58	9.08155
68.8	4.24363
69.02	10.1682
69.24	7.06065
69.46	11.0551
69.68	12.0359
69.9	12.9691
70.12	3.64765
70.34	5.40573
70.56	9.43435
70.78	3.20243
71	6.99136
71.22	7.94736
71.44	0.867629
71.66	2.91354
71.88	7.0899
72.1	11.2
72.32	10.2755
72.54	13.2528
72.76	5.20296
72.98	9.16727
73.2	7.24651
73.42	2.283
73.64	11.529
73.86	7.6631
74.08	1.32942
74.3	8.51815
74.52	5.51408
74.74	4.46097
74.96	0.29031
75.18	6.75903
75.4	2.83843
75.62	7.04279
75.84	9.07694
76.06	5.0649
76.28	5.1907
76.5	0.222626
76.72	0.348573
76.94	1.32997
77.16	4.23513
77.38	6.22887
77.6	11.2197
77.82	5.21416
78.04	11.0795
78.26	5.13008
78.48	10.1086
78.7	1.20926
78.92	2.23746
79.14	0.143631
79.36	8.11253
79.58	1.17788
79.8	3.54007
80.02	3.58573
80.24	5.46437
80.46	6.42592
80.68	0.385918
80.9	4.34898
81.12	1.22861
81.34	4.19938
81.56	4.34474
81.78	4.39092
82	4.3539
82.22	7.07276
82.44	6.32055
82.66	0.509928
82.88	13.608
83.1	2.46538
83.32	6.40144
83.54	2.22623
83.76	5.31661
83.98	4.13777
84.2	2.80245
84.42	5.69945
84.64	2.49152
84.86	4.40192
85.08	5.22375
85.3	15.1796
85.52	13.478
85.74	18.4107
85.96	2.25893
86.18	6.13792
86.4	3.00385
86.62	3.94746
86.84	4.87399
87.06	5.81937
87.28	7.69002
87.5	3.71796
87.72	6.41242
87.94	4.44073
88.16	9.60512
88.38	4.0818
88.6	4.28495
88.82	0.411842
89.04	4.82987
89.26	9.16037
89.48	9.524
89.7	10.8097
89.92	0.068274
