Measurement: Powder, Xray Data XY Processed
Mineral: Titanite
Rruff sample: R050124
Ideal chemistry: CaTi^4+^SiO_5_
Locality: Capelinha, Minas Gerais, Brazil
Source: Carlos and Paulo Vasconcelos
Description: Yellow tabular crystal
Diffraction sample description: Powder
Measured chemistry: Ca_1.00_(Ti_0.93_Al_0.05_Fe^3+^_0.02_)Si_1.00_O_4_(O)_1.00_
Cell parameters: a: 7.0648(5) b: 8.6977(3) c: 6.5538(2) alpha: 90. beta: 113.928(3) gamma: 90. volume: 368.11(2) crystal system: monoclinic
x	intensity
5	0
5.22	9.762
5.44	16.82
5.66	12.635
5.88	5.944
6.1	15.993
6.32	2.731
6.54	18.09
6.76	0.77
6.98	1.319
7.2	10.914
7.42	5.255
7.64	5.735
7.86	3.165
8.08	7.575
8.3	3.996
8.52	4.081
8.74	8.327
8.96	6.566
9.18	1.138
9.4	7.207
9.62	2.595
9.84	2.763
10.06	10.766
10.28	3.783
10.5	8.858
10.72	6.889
10.94	3.02
11.16	6.078
11.38	9.268
11.6	2.072
11.82	12.29
12.04	8.145
12.26	11.23
12.48	8.138
12.7	6.148
12.92	0.833
13.14	5.23
13.36	12.05
13.58	4.273
13.8	5.248
14.02	7.268
14.24	8.229
14.46	0.78
14.68	6.277
14.9	0.406
15.12	8.548
15.34	6.689
15.56	0.885
15.78	1.397
16	2.677
16.22	8.765
16.44	2.884
16.66	3.101
16.88	2.168
17.1	6.252
17.32	5.463
17.54	10.614
17.76	13.588
17.98	220.692
18.2	9.357
18.42	1.843
18.64	7.21
18.86	3.076
19.08	4.082
19.3	1.027
19.52	1.681
19.74	5.026
19.96	7.024
20.18	8.915
20.4	9.988
20.62	4.075
20.84	2.023
21.06	3.919
21.28	7.077
21.5	7.186
21.72	2.32
21.94	7.116
22.16	4.34
22.38	4.655
22.6	2.714
22.82	4.737
23.04	3.779
23.26	4.875
23.48	0.883
23.7	0.136
23.92	1.734
24.14	5.691
24.36	1.169
24.58	3.63
24.8	10.543
25.02	4.363
25.24	5.37
25.46	2.666
25.68	8.106
25.9	0.804
26.12	15.509
26.34	8.291
26.56	1.03
26.78	2.593
27	11.455
27.22	5.18
27.44	192.4
27.66	36.566
27.88	8.459
28.1	12.489
28.32	3.826
28.54	1.065
28.76	3.006
28.98	6.041
29.2	2.358
29.42	6.357
29.64	16.405
29.86	189.189
30.08	3.771
30.3	7.829
30.52	3.757
30.74	1.562
30.96	7.731
31.18	11.768
31.4	38.888
31.62	2.957
31.84	0.746
32.06	0.657
32.28	5.382
32.5	0.747
32.72	6.562
32.94	3.661
33.16	3.563
33.38	0.368
33.6	6.34
33.82	4.097
34.04	9.906
34.26	47.815
34.48	92.113
34.7	93.244
34.92	3.201
35.14	1.5
35.36	4.553
35.58	5.731
35.8	6.92
36.02	2.248
36.24	4.345
36.46	3.622
36.68	4.62
36.9	3.404
37.12	2.342
37.34	5.158
37.56	1.62
37.78	17.632
38	8.571
38.22	7.474
38.44	1.212
38.66	5.135
38.88	0.995
39.1	1.071
39.32	13.977
39.54	54.863
39.76	24.14
39.98	4.91
40.2	1.638
40.42	14.687
40.64	7.833
40.86	2.523
41.08	1.595
41.3	4.511
41.52	10.674
41.74	6.625
41.96	5.535
42.18	7.057
42.4	2.67
42.62	2.446
42.84	29.209
43.06	8.931
43.28	2.136
43.5	22.111
43.72	18.174
43.94	59.124
44.16	10.338
44.38	4.506
44.6	6.745
44.82	3.253
45.04	3.701
45.26	0.867
45.48	4.349
45.7	12.551
45.92	1.475
46.14	2.456
46.36	7.564
46.58	10.716
46.8	13.684
47.02	5.636
47.24	3.401
47.46	3.406
47.68	4.203
47.9	8.109
48.12	6.997
48.34	7.891
48.56	11.919
48.78	7.58
49	4.546
49.22	12.605
49.44	6.591
49.66	2.384
49.88	5.386
50.1	11.975
50.32	4.97
50.54	20.971
50.76	7.977
50.98	7.774
51.2	5.435
51.42	7.12
51.64	6.775
51.86	2.461
52.08	4.351
52.3	38.74
52.52	12.098
52.74	0.063
52.96	26.789
53.18	2.062
53.4	18.369
53.62	17.831
53.84	49.112
54.06	6.382
54.28	4.682
54.5	1.202
54.72	4.004
54.94	6.159
55.16	7.327
55.38	3.766
55.6	5.518
55.82	83.414
56.04	100.3
56.26	6.442
56.48	2.67
56.7	2.888
56.92	10.305
57.14	9.45
57.36	1.664
57.58	8.707
57.8	1.603
58.02	5.656
58.24	2.528
58.46	0.499
58.68	2.94
58.9	4.779
59.12	12.568
59.34	20.148
59.56	10.182
59.78	5.08
60	0.987
60.22	7.778
60.44	31.907
60.66	9.855
60.88	5.808
61.1	2.283
61.32	5.238
61.54	2.307
61.76	0.606
61.98	58.702
62.2	10.826
62.42	6.235
62.64	8.695
62.86	2.854
63.08	2.948
63.3	7.003
63.52	4.075
63.74	6.204
63.96	8.052
64.18	1.655
64.4	9.311
64.62	1.055
64.84	0.487
65.06	3.02
65.28	0.358
65.5	4.747
65.72	30.015
65.94	8.027
66.16	46.228
66.38	18.592
66.6	3.884
66.82	2.182
67.04	2.624
67.26	5.132
67.48	4.403
67.7	4.629
67.92	2.647
68.14	3.586
68.36	7.683
68.58	6.434
68.8	4.225
69.02	6.159
69.24	1.355
69.46	5.033
69.68	3.972
69.9	9.888
70.12	1.884
70.34	5.033
70.56	1.009
70.78	1.026
71	4.011
71.22	3.005
71.44	3.823
71.66	6.755
71.88	0.308
72.1	5.81
72.32	28.886
72.54	13.011
72.76	2.94
72.98	8.946
73.2	3.969
73.42	4.009
73.64	4.053
73.86	5.14
74.08	5.161
74.3	21.233
74.52	4.229
74.74	5.289
74.96	4.341
75.18	2.168
75.4	2.121
75.62	2.23
75.84	0.603
76.06	2.37
76.28	1.276
76.5	2.243
76.72	4.218
76.94	1.019
77.16	4.048
77.38	6.881
77.6	12.832
77.82	1.127
78.04	1.904
78.26	1.903
78.48	7.165
78.7	9.411
78.92	1.734
79.14	5.929
79.36	9.118
79.58	0.012
79.8	7.144
80.02	3.338
80.24	8.31
80.46	3.193
80.68	6.054
80.9	4.875
81.12	3.704
81.34	6.461
81.56	0.468
81.78	2.385
82	5.624
82.22	4.788
82.44	0.669
82.66	1.717
82.88	4.861
83.1	0.023
83.32	8.052
83.54	6.977
83.76	5.968
83.98	5.758
84.2	1.49
84.42	3.078
84.64	2.814
84.86	1.341
85.08	3.52
85.3	2.334
85.52	3.267
85.74	22.423
85.96	5.628
86.18	4.535
86.4	3.468
86.62	1.495
86.84	2.56
87.06	2.608
87.28	10.628
87.5	9.724
87.72	6.943
87.94	13.87
88.16	18.776
88.38	8.954
88.6	9.151
88.82	1.333
89.04	2.616
89.26	4.04
89.48	7.187
89.7	5.311
89.92	0.424
