Measurement: Powder, Xray Data XY Processed
Mineral: Tobermorite
Rruff sample: R060147
Ideal chemistry: Ca_5_Si_6_O_16_(OH)_2_nH_2_O
Locality: Crestmore Quarries, Riverside County, California
Source: University of Arizona Mineral Museum
Description: White fibers bundled in divergent tufts
Diffraction sample description: Powder
Measured chemistry: (Ca_4.91_Al_0.06_[box]_0.03_)_Σ=5_Si_6.00_O_16_(OH)_2_·5H_2_O ; H not measured but estimated by difference
x	intensity
5	0
5.22	9.804
5.44	12.093
5.66	9.884
5.88	14.835
6.1	14.424
6.32	85.099
6.54	72.029
6.76	23.344
6.98	16.06
7.2	21.655
7.42	2.4
7.64	1.239
7.86	94.392
8.08	10.277
8.3	1.297
8.52	0.116
8.74	3.886
8.96	15.33
9.18	13.693
9.4	4.772
9.62	5.909
9.84	5.076
10.06	4.142
10.28	5.482
10.5	9.955
10.72	6.127
10.94	9.464
11.16	0.257
11.38	4.999
11.6	3.177
11.82	4.452
12.04	0.222
12.26	6.034
12.48	4.154
12.7	1.44
12.92	3.561
13.14	4.728
13.36	1.373
13.58	2.456
13.8	8.459
14.02	1.432
14.24	3.553
14.46	4.569
14.68	6.491
14.9	11.409
15.12	4.17
15.34	4.83
15.56	4.636
15.78	9.753
16	8.634
16.22	33.496
16.44	6.377
16.66	2.183
16.88	3.013
17.1	9.174
17.32	4.459
17.54	4.584
17.76	6.551
17.98	4.651
18.2	0.508
18.42	5.719
18.64	3.968
18.86	9.046
19.08	7.182
19.3	6.41
19.52	5.417
19.74	4.208
19.96	2.34
20.18	12.368
20.4	0.452
20.62	3.579
20.84	11.332
21.06	3.272
21.28	8.319
21.5	10.177
21.72	4.883
21.94	3.029
22.16	4.137
22.38	4.916
22.6	4.879
22.82	3.561
23.04	5.494
23.26	0.382
23.48	3.286
23.7	3.417
23.92	4.397
24.14	3.263
24.36	2.745
24.58	7.566
24.8	4.468
25.02	4.475
25.24	2.223
25.46	17.196
25.68	7.94
25.9	3.603
26.12	3.247
26.34	1.774
26.56	11.629
26.78	7.377
27	15.482
27.22	12.501
27.44	14.157
27.66	11.114
27.88	0.509
28.1	1.876
28.32	6.598
28.54	1.075
28.76	2.646
28.98	57.187
29.2	25.816
29.42	12.566
29.64	20.02
29.86	27.206
30.08	27.556
30.3	13.457
30.52	2.009
30.74	6.294
30.96	9.637
31.18	3.989
31.4	11.252
31.62	0.532
31.84	28.267
32.06	25.396
32.28	5.528
32.5	21.323
32.72	12.902
32.94	7.279
33.16	7.785
33.38	6.112
33.6	2.65
33.82	4.924
34.04	3.581
34.26	9.06
34.48	4.405
34.7	6.604
34.92	5.725
35.14	12.77
35.36	4.102
35.58	2.061
35.8	6.163
36.02	10.21
36.24	11.326
36.46	4.293
36.68	5.247
36.9	8.484
37.12	9.534
37.34	0.493
37.56	1.237
37.78	8.032
38	6.949
38.22	3.154
38.44	3.957
38.66	4.823
38.88	4.789
39.1	10.855
39.32	3.919
39.54	4.141
39.76	1.237
39.98	4.489
40.2	0.706
40.42	6.863
40.64	2.841
40.86	4.917
41.08	3.815
41.3	3.851
41.52	1.217
41.74	2.56
41.96	9.231
42.18	10.024
42.4	7.663
42.62	4.277
42.84	4.026
43.06	2.79
43.28	0.664
43.5	10.752
43.72	7.005
43.94	4.23
44.16	0.197
44.38	5.498
44.6	9.703
44.82	2.917
45.04	3.277
45.26	6.593
45.48	6.838
45.7	5.968
45.92	7.031
46.14	3.76
46.36	1.937
46.58	4
46.8	4.994
47.02	2.078
47.24	3.237
47.46	6.057
47.68	7.045
47.9	0.131
48.12	5.132
48.34	1.871
48.56	2.722
48.78	8.473
49	5.335
49.22	12.12
49.44	16.949
49.66	13.955
49.88	9.993
50.1	6.866
50.32	14.723
50.54	8.001
50.76	5.225
50.98	1.588
51.2	10.804
51.42	1.064
51.64	8.593
51.86	9.953
52.08	9.993
52.3	3.185
52.52	5.282
52.74	5.317
52.96	2.265
53.18	3.111
53.4	3.946
53.62	7.877
53.84	0.695
54.06	7.223
54.28	2.94
54.5	3.758
54.72	3.585
54.94	11.61
55.16	5.868
55.38	4.773
55.6	8.92
55.82	8.92
56.04	6.972
56.26	7.249
56.48	8.326
56.7	0.444
56.92	9.494
57.14	7.717
57.36	4.636
57.58	5.703
57.8	1.779
58.02	1.742
58.24	6.004
58.46	6.944
58.68	3.824
58.9	4.818
59.12	2.819
59.34	2.787
59.56	5.759
59.78	5.828
60	9.605
60.22	5.677
60.44	2.873
60.66	2.697
60.88	2.767
61.1	5.865
61.32	1.156
61.54	5.218
61.76	10.356
61.98	2.369
62.2	3.515
62.42	2.451
62.64	1.486
62.86	1.533
63.08	2.76
63.3	0.881
63.52	2.865
63.74	2.72
63.96	0.77
64.18	2.209
64.4	3.719
64.62	4.623
64.84	4.779
65.06	4.875
65.28	0.162
65.5	11.583
65.72	6.572
65.94	1.602
66.16	7.574
66.38	0.356
66.6	10.664
66.82	7.606
67.04	6.531
67.26	4.23
67.48	0.977
67.7	2.932
67.92	2.863
68.14	6.992
68.36	1.92
68.58	1.89
68.8	0.896
69.02	2.91
69.24	0.065
69.46	0.21
69.68	3.391
69.9	4.477
70.12	3.564
70.34	1.258
70.56	6.66
70.78	4.926
71	5.901
71.22	3.946
71.44	1.896
71.66	3.842
71.88	1.973
72.1	5.945
72.32	9.952
72.54	1.019
72.76	2.123
72.98	1.125
73.2	1.059
73.42	2.013
73.64	1.025
73.86	3.038
74.08	3.963
74.3	4.862
74.52	6.768
74.74	1.732
74.96	3.609
75.18	9.339
75.4	2.376
75.62	7.362
75.84	3.393
76.06	8.444
76.28	6.442
76.5	5.391
76.72	6.641
76.94	1.843
77.16	0.939
77.38	5.127
77.6	8.193
77.82	1.233
78.04	1.294
78.26	2.172
78.48	4.105
78.7	3.098
78.92	3.27
79.14	4.08
79.36	6.133
79.58	2.013
79.8	6.023
80.02	3.033
80.24	6.969
80.46	2.098
80.68	0.904
80.9	4.22
81.12	3.233
81.34	5.116
81.56	5.08
81.78	3.144
82	8.155
82.22	9.157
82.44	3.169
82.66	3.355
82.88	2.295
83.1	0.302
83.32	4.202
83.54	4.274
83.76	4.241
83.98	4.119
84.2	4.121
84.42	1.189
84.64	0.752
84.86	2.303
85.08	2.083
85.3	1.043
85.52	2.995
85.74	5.993
85.96	1.105
86.18	5.089
86.4	3.211
86.62	2.085
86.84	2.032
87.06	7.971
87.28	2.976
87.5	2.975
87.72	3.971
87.94	3.981
88.16	8.866
88.38	2.918
88.6	3.965
88.82	5.869
89.04	7.866
89.26	1.865
89.48	0.048
89.7	0.911
89.92	0.283
