Measurement: Powder, Xray Data XY Processed
Mineral: Topaz
Rruff sample: R050404
Ideal chemistry: Al_2_SiO_4_F_2_
Locality: Minas Gerais, Brazil
Source: Gerry Gibbs
Description: Colorless cleavage fragments
Diffraction sample description: Powder
Measured chemistry: Al_2.00_Si_1.00_O_4_(F_0.86_(OH)_0.14_)_2_
Cell parameters: a: 4.6509(2) b: 8.7996(3) c: 8.3902(2) alpha: 90. beta: 90. gamma: 90. volume: 343.38(1) crystal system: orthorhombic
x	intensity
5	0
5.22	4.305
5.44	2.997
5.66	11.203
5.88	11.407
6.1	9.758
6.32	11.491
6.54	2.556
6.76	4.826
6.98	11.371
7.2	0.991
7.42	7.729
7.64	4.521
7.86	6.117
8.08	9.96
8.3	5.594
8.52	6.145
8.74	12.372
8.96	4.16
9.18	6.683
9.4	5.146
9.62	6.369
9.84	14.72
10.06	7.779
10.28	2.954
10.5	9.145
10.72	2.198
10.94	3.296
11.16	8.357
11.38	1.73
11.6	1.902
11.82	1.775
12.04	0.746
12.26	7.707
12.48	3.253
12.7	5.155
12.92	2.853
13.14	9.996
13.36	6.125
13.58	2.345
13.8	4.009
14.02	4.869
14.24	2.904
14.46	9.795
14.68	6.979
14.9	2.157
15.12	3.066
15.34	6.235
15.56	1.222
15.78	0.219
16	4.178
16.22	1.245
16.44	6.581
16.66	1.957
16.88	10.112
17.1	0.051
17.32	8.103
17.54	0.047
17.76	3.911
17.98	4.907
18.2	5.063
18.42	8.987
18.64	0.293
18.86	7.109
19.08	6.747
19.3	5.673
19.52	3.672
19.74	3.484
19.96	6.511
20.18	26.384
20.4	1.324
20.62	8.075
20.84	0.125
21.06	6.738
21.28	1.056
21.5	6.556
21.72	19.442
21.94	10.247
22.16	6.904
22.38	4.959
22.6	2.791
22.82	25.58
23.04	2.301
23.26	2.04
23.48	0.779
23.7	5.937
23.92	7.628
24.14	306.473
24.36	6.432
24.58	3.593
24.8	1.386
25.02	0.595
25.24	7.759
25.46	3.818
25.68	7.007
25.9	4.201
26.12	1.788
26.34	4.078
26.56	10.002
26.78	7.946
27	8.615
27.22	3.465
27.44	27.337
27.66	9.724
27.88	246.737
28.1	21.601
28.32	2.959
28.54	9.507
28.76	2.21
28.98	1.892
29.2	0.38
29.42	404.412
29.64	6.404
29.86	31.002
30.08	7.694
30.3	33.37
30.52	398.57
30.74	2.007
30.96	2.537
31.18	2.41
31.4	8.171
31.62	1.141
31.84	7.549
32.06	5.213
32.28	2.794
32.5	9.026
32.72	6.838
32.94	1.046
33.16	5.072
33.38	9.15
33.6	7.056
33.82	8.159
34.04	2.05
34.26	8.816
34.48	6.568
34.7	3.315
34.92	10.253
35.14	9.901
35.36	9.688
35.58	4.848
35.8	7.014
36.02	5.692
36.24	48.592
36.46	0.351
36.68	6.089
36.9	6.862
37.12	1.458
37.34	1.408
37.56	17.297
37.78	98.183
38	17.976
38.22	191.016
38.44	5.347
38.66	12.608
38.88	23.882
39.1	7.132
39.32	4.522
39.54	0.888
39.76	3.148
39.98	10.304
40.2	21.694
40.42	2.653
40.64	5.435
40.86	5.884
41.08	20.134
41.3	0.048
41.52	24.782
41.74	8.384
41.96	1.09
42.18	6.639
42.4	8.366
42.62	8.883
42.84	28.727
43.06	254.533
43.28	5.781
43.5	10.223
43.72	1.697
43.94	16.981
44.16	47.492
44.38	5.918
44.6	4.157
44.82	1.42
45.04	3.855
45.26	3.107
45.48	9.268
45.7	32.937
45.92	5.048
46.14	4.839
46.36	14.036
46.58	38.339
46.8	1.291
47.02	7.44
47.24	7.7
47.46	7.429
47.68	7.262
47.9	4.089
48.12	4.889
48.34	3.811
48.56	8.901
48.78	34.215
49	32.552
49.22	83.406
49.44	4.235
49.66	4.918
49.88	4.936
50.1	11.094
50.32	1.303
50.54	0.801
50.76	18.282
50.98	6.657
51.2	0.195
51.42	5.676
51.64	1.701
51.86	4.555
52.08	7.869
52.3	4.195
52.52	1.284
52.74	6.433
52.96	7.075
53.18	9.173
53.4	6.608
53.62	5.181
53.84	10.849
54.06	0.265
54.28	4.022
54.5	4.756
54.72	8.543
54.94	291.716
55.16	22.695
55.38	23.765
55.6	31.398
55.82	7.466
56.04	4.568
56.26	2.885
56.48	6.015
56.7	14.069
56.92	29.161
57.14	3.392
57.36	2.126
57.58	6.97
57.8	9.923
58.02	2.254
58.24	1.282
58.46	10.32
58.68	2.255
58.9	6.692
59.12	1.253
59.34	1.706
59.56	3.444
59.78	8.558
60	0.43
60.22	10.617
60.44	21.597
60.66	42.62
60.88	1.824
61.1	7.467
61.32	5.36
61.54	0.39
61.76	5.648
61.98	1.026
62.2	3.135
62.42	13.197
62.64	11.972
62.86	0.158
63.08	1.582
63.3	8.409
63.52	10.268
63.74	18.177
63.96	3.947
64.18	7.168
64.4	9.886
64.62	20.341
64.84	3.877
65.06	7.347
65.28	2.613
65.5	0.693
65.72	26.026
65.94	58.462
66.16	2.935
66.38	5.516
66.6	119.773
66.82	80.516
67.04	43.538
67.26	14.68
67.48	25.083
67.7	5.846
67.92	3.747
68.14	13.326
68.36	7.94
68.58	4.566
68.8	0.179
69.02	7.543
69.24	87.376
69.46	48.835
69.68	6.317
69.9	25.457
70.12	10.863
70.34	6.079
70.56	10.296
70.78	13.588
71	24.972
71.22	7.401
71.44	3.331
71.66	0.015
71.88	2.92
72.1	3.964
72.32	2.035
72.54	4.036
72.76	14.955
72.98	5.896
73.2	7.739
73.42	3.54
73.64	9.277
73.86	4.273
74.08	9.777
74.3	2.926
74.52	3.112
74.74	1.109
74.96	1.07
75.18	1.823
75.4	0.732
75.62	3.322
75.84	8.381
76.06	10.539
76.28	11.429
76.5	2.247
76.72	1.17
76.94	11.325
77.16	10.347
77.38	4.323
77.6	4.321
77.82	2.288
78.04	5.132
78.26	1.295
78.48	17.375
78.7	13.52
78.92	3.383
79.14	6.419
79.36	5.57
79.58	4.669
79.8	6.073
80.02	7.188
80.24	6.572
80.46	2.739
80.68	2.479
80.9	6.478
81.12	4.541
81.34	6.46
81.56	1.328
81.78	2.978
82	4.801
82.22	2.43
82.44	1.406
82.66	13.953
82.88	25.787
83.1	7.657
83.32	4.564
83.54	12.354
83.76	1.52
83.98	4.708
84.2	10.789
84.42	1.99
84.64	8.065
84.86	12.197
85.08	7.386
85.3	0.689
85.52	2.921
85.74	2.236
85.96	4.287
86.18	1.496
86.4	5.648
86.62	3.864
86.84	1.86
87.06	6.975
87.28	3.823
87.5	2.784
87.72	3.691
87.94	9.619
88.16	7.453
88.38	2.426
88.6	1.328
88.82	14.342
89.04	6.167
89.26	6.26
89.48	1.465
89.7	0.966
89.92	4.704
