Measurement: Powder, Xray Data XY Processed
Mineral: Topaz
Rruff sample: R040121
Ideal chemistry: Al_2_SiO_4_F_2_
Locality: Tepetate, San Luis Potosi, Mexico
Source: University of Arizona Mineral Museum
Description: Fragments of a prismatic single crystal
Diffraction sample description: Powder
Measured chemistry: Al_2.00_(Si_0.99_Al_0.02_)(F_0.82_(OH)_0.18_)_2_
Cell parameters: a: 4.6479(1) b: 8.7909(2) c: 8.3927(2) alpha: 90. beta: 90. gamma: 90. volume: 342.924(9) crystal system: orthorhombic
x	intensity
5	0
5.22	12.8408
5.44	3.88083
5.66	9.19126
5.88	7.4837
6.1	8.09673
6.32	6.67086
6.54	5.41961
6.76	6.24679
6.98	16.0473
7.2	10.9797
7.42	2.54571
7.64	8.23335
7.86	9.76949
8.08	6.79031
8.3	11.2455
8.52	11.6193
8.74	9.66291
8.96	5.71012
9.18	9.70067
9.4	6.79806
9.62	3.72762
9.84	2.84705
10.06	4.85023
10.28	1.61712
10.5	4.32904
10.72	0.581666
10.94	4.62017
11.16	11.06
11.38	1.51273
11.6	0.536908
11.82	10.5984
12.04	8.58828
12.26	13.5661
12.48	3.25203
12.7	2.81274
12.92	9.76528
13.14	6.73106
13.36	0.540225
13.58	7.3341
13.8	7.2445
14.02	2.48113
14.24	4.43918
14.46	7.54599
14.68	2.69048
14.9	4.85477
15.12	7.30179
15.34	2.42397
15.56	5.57805
15.78	3.88568
16	2.09816
16.22	4.51296
16.44	0.622543
16.66	6.98417
16.88	8.18407
17.1	0.368392
17.32	5.62386
17.54	7.5706
17.76	3.69855
17.98	12.8017
18.2	7.23122
18.42	0.734342
18.64	6.08306
18.86	1.03845
19.08	5.0275
19.3	3.14144
19.52	7.06163
19.74	5.8504
19.96	2.66073
20.18	14.5255
20.4	6.43933
20.62	7.86631
20.84	2.60641
21.06	6.597
21.28	11.4474
21.5	6.65983
21.72	32.5003
21.94	0.407761
22.16	2.41467
22.38	0.580126
22.6	4.50219
22.82	24.3605
23.04	3.21406
23.26	2.07707
23.48	2.90543
23.7	0.793921
23.92	6.42196
24.14	632.396
24.36	14.392
24.58	1.35431
24.8	1.59118
25.02	6.89039
25.24	12.2539
25.46	2.43598
25.68	5.7679
25.9	8.9315
26.12	1.75308
26.34	9.58551
26.56	9.43633
26.78	7.21839
27	7.80429
27.22	12.528
27.44	13.2917
27.66	7.12503
27.88	101.168
28.1	44.5476
28.32	1.02798
28.54	1.58038
28.76	3.16039
28.98	3.72125
29.2	5.30292
29.42	413.991
29.64	11.6224
29.86	19.2955
30.08	20.8055
30.3	30.8493
30.52	487.494
30.74	5.96123
30.96	8.82224
31.18	2.60908
31.4	1.66456
31.62	8.03525
31.84	5.83518
32.06	6.46319
32.28	4.25327
32.5	9.71727
32.72	0.692238
32.94	3.55485
33.16	2.85799
33.38	5.7554
33.6	9.8307
33.82	3.01998
34.04	5.0407
34.26	1.08032
34.48	6.74549
34.7	6.78185
34.92	4.70145
35.14	9.59296
35.36	5.8083
35.58	8.79558
35.8	3.56933
36.02	6.45444
36.24	126.099
36.46	10.7276
36.68	4.30873
36.9	9.63063
37.12	2.09959
37.34	2.63537
37.56	27.3035
37.78	16.6791
38	25.2598
38.22	247.494
38.44	11.4168
38.66	16.6572
38.88	10.0034
39.1	14.217
39.32	0.721801
39.54	3.00143
39.76	10.5837
39.98	6.70481
40.2	11.8346
40.42	3.75977
40.64	6.20767
40.86	10.7432
41.08	69.8566
41.3	2.01811
41.52	8.74073
41.74	19.2177
41.96	4.87784
42.18	1.67417
42.4	2.85943
42.62	19.155
42.84	13.1864
43.06	253.214
43.28	15.4011
43.5	4.08422
43.72	1.81381
43.94	13.0837
44.16	84.6636
44.38	5.36856
44.6	8.66385
44.82	5.92349
45.04	3.96186
45.26	4.26474
45.48	6.39415
45.7	25.4013
45.92	7.83371
46.14	0.433385
46.36	7.62918
46.58	7.66134
46.8	3.68358
47.02	15.5788
47.24	6.67287
47.46	4.41744
47.68	2.14055
47.9	2.0767
48.12	0.311933
48.34	1.50375
48.56	4.37585
48.78	61.0903
49	24.6645
49.22	144.137
49.44	8.80321
49.66	6.79994
49.88	9.02484
50.1	60.5179
50.32	2.90616
50.54	6.49248
50.76	5.97865
50.98	21.5402
51.2	8.13409
51.42	11.5262
51.64	1.86738
51.86	3.59368
52.08	4.89736
52.3	1.96116
52.52	3.17126
52.74	1.43244
52.96	8.33001
53.18	0.279846
53.4	4.17499
53.62	7.7576
53.84	3.54708
54.06	9.33164
54.28	9.00031
54.5	2.70708
54.72	6.67412
54.94	222.314
55.16	28.3017
55.38	8.15191
55.6	41.1355
55.82	5.85139
56.04	0.199569
56.26	1.8524
56.48	4.02084
56.7	11.0215
56.92	19.1465
57.14	2.2269
57.36	5.99579
57.58	7.01824
57.8	8.16775
58.02	5.24891
58.24	1.36349
58.46	11.3487
58.68	0.68928
58.9	4.63378
59.12	5.65446
59.34	9.50548
59.56	6.26041
59.78	4.27081
60	10.0697
60.22	14.0411
60.44	20.1106
60.66	155.372
60.88	13.7207
61.1	13.7432
61.32	1.57982
61.54	1.49761
61.76	2.61271
61.98	2.06721
62.2	12.7246
62.42	12.7749
62.64	19.5713
62.86	10.5595
63.08	8.90594
63.3	11.5827
63.52	6.36424
63.74	18.0852
63.96	5.94038
64.18	4.60942
64.4	7.65665
64.62	7.67968
64.84	8.11036
65.06	5.51667
65.28	1.3483
65.5	6.0304
65.72	20.3575
65.94	32.7376
66.16	13.2011
66.38	0.366174
66.6	31.5148
66.82	165.624
67.04	94.4759
67.26	18.6027
67.48	15.6439
67.7	28.1426
67.92	15.6704
68.14	30.2289
68.36	20.8487
68.58	2.62303
68.8	1.86717
69.02	3.36271
69.24	38.9283
69.46	57.3474
69.68	5.863
69.9	34.4803
70.12	22.1059
70.34	2.56184
70.56	10.1252
70.78	11.5208
71	14.7315
71.22	23.1794
71.44	6.37761
71.66	0.477572
71.88	4.64998
72.1	0.477778
72.32	2.41635
72.54	4.65484
72.76	6.54833
72.98	7.20308
73.2	0.073481
73.42	2.92959
73.64	1.27167
73.86	10.7112
74.08	12.8306
74.3	4.4134
74.52	4.72305
74.74	6.76656
74.96	8.38103
75.18	1.44521
75.4	5.58646
75.62	6.55823
75.84	6.70321
76.06	20.6361
76.28	13.5469
76.5	3.29774
76.72	1.76755
76.94	5.97185
77.16	6.91982
77.38	7.85014
77.6	0.814857
77.82	4.69446
78.04	4.64481
78.26	6.49139
78.48	64.6536
78.7	15.6997
78.92	32.9619
79.14	15.9755
79.36	4.66131
79.58	8.83747
79.8	15.193
80.02	12.3735
80.24	3.84649
80.46	0.808032
80.68	5.4885
80.9	0.491364
81.12	1.73796
81.34	3.62744
81.56	2.5426
81.78	1.24895
82	5.93927
82.22	0.300106
82.44	1.68226
82.66	0.621531
82.88	8.05031
83.1	17.496
83.32	11.1992
83.54	40.9287
83.76	12.7401
83.98	9.72275
84.2	5.98276
84.42	3.40406
84.64	6.73177
84.86	8.17434
85.08	2.86061
85.3	7.47289
85.52	2.93804
85.74	4.67239
85.96	2.90461
86.18	0.851266
86.4	5.67965
86.62	6.52117
86.84	2.50642
87.06	4.21339
87.28	2.07081
87.5	6.70979
87.72	1.42904
87.94	8.25447
88.16	5.97884
88.38	2.01394
88.6	9.12029
88.82	6.06597
89.04	10.2159
89.26	2.47829
89.48	5.06284
89.7	5.74787
89.92	7.21565
