Measurement: Powder, Xray Data XY Processed
Mineral: Topaz
Rruff sample: R050199
Ideal chemistry: Al_2_SiO_4_F_2_
Locality: Madagascar
Source: Marcus Origlieri
Description: Transparent colorless crystal fragment
Diffraction sample description: Powder
Measured chemistry: Al_2.000_Si_1.000_O_4.000_(F_1.340_(OH)_0.660_)
Cell parameters: a: 4.65001(8) b: 8.7977(2) c: 8.3908(1) alpha: 90. beta: 90. gamma: 90. volume: 343.267(8) crystal system: orthorhombic
x	intensity
5	0
5.22	3.55145
5.44	18.8385
5.66	18.5835
5.88	11.713
6.1	10.3064
6.32	11.1932
6.54	8.35755
6.76	12.8837
6.98	13.2313
7.2	12.817
7.42	15.3482
7.64	6.88561
7.86	4.49847
8.08	3.05165
8.3	7.49839
8.52	7.56648
8.74	10.7304
8.96	7.99491
9.18	4.43448
9.4	3.62585
9.62	2.82644
9.84	7.10078
10.06	7.31405
10.28	3.6169
10.5	2.75816
10.72	5.90609
10.94	1.14715
11.16	2.3094
11.38	3.38664
11.6	16.2687
11.82	9.27595
12.04	12.1765
12.26	6.16089
12.48	5.99955
12.7	6.70035
12.92	12.7564
13.14	3.831
13.36	9.8057
13.58	5.56529
13.8	7.70403
14.02	9.80536
14.24	9.01094
14.46	7.53259
14.68	3.90197
14.9	2.24234
15.12	1.80377
15.34	7.09154
15.56	0.362607
15.78	7.75117
16	2.96498
16.22	3.19742
16.44	3.16411
16.66	5.35968
16.88	1.08931
17.1	8.09065
17.32	8.96553
17.54	0.722328
17.76	1.59652
17.98	0.526455
18.2	4.22255
18.42	12.1531
18.64	3.07915
18.86	7.12788
19.08	3.08729
19.3	4.12274
19.52	10.4144
19.74	0.542777
19.96	13.5015
20.18	17.4555
20.4	1.49167
20.62	2.50533
20.84	7.59343
21.06	2.54874
21.28	5.3104
21.5	3.50235
21.72	30.1944
21.94	10.0853
22.16	0.018444
22.38	9.75034
22.6	0.672537
22.82	19.5286
23.04	6.41204
23.26	5.15098
23.48	1.96031
23.7	4.98396
23.92	8.25034
24.14	1100.22
24.36	12.0483
24.58	12.0965
24.8	3.19705
25.02	0.657711
25.24	12.3599
25.46	1.63394
25.68	13.8211
25.9	3.83167
26.12	10.5431
26.34	2.48487
26.56	5.29022
26.78	5.27208
27	2.2281
27.22	7.14594
27.44	21.0331
27.66	9.08009
27.88	99.6333
28.1	28.3623
28.32	8.16508
28.54	1.74929
28.76	2.30412
28.98	0.987509
29.2	3.63833
29.42	288.337
29.64	14.1179
29.86	11.7409
30.08	15.2497
30.3	19.7822
30.52	562.444
30.74	11.825
30.96	6.31683
31.18	3.76027
31.4	1.24455
31.62	4.78836
31.84	5.24466
32.06	5.62779
32.28	5.10105
32.5	8.44549
32.72	3.78747
32.94	4.8288
33.16	2.77355
33.38	3.92484
33.6	5.18145
33.82	10.3104
34.04	7.27905
34.26	9.23613
34.48	2.21217
34.7	6.34011
34.92	6.22389
35.14	16.7995
35.36	0.348631
35.58	7.08448
35.8	7.00139
36.02	4.68031
36.24	96.387
36.46	4.08833
36.68	3.81493
36.9	3.35118
37.12	7.88843
37.34	5.68507
37.56	36.7813
37.78	55.6255
38	24.2903
38.22	246.836
38.44	11.1201
38.66	9.31376
38.88	9.52745
39.1	11.6973
39.32	0.067293
39.54	2.64237
39.76	12.4663
39.98	7.36834
40.2	16.4929
40.42	2.49776
40.64	5.90594
40.86	3.66626
41.08	9.90312
41.3	3.61579
41.52	10.3664
41.74	12.9215
41.96	6.53195
42.18	3.20618
42.4	0.972143
42.62	6.85332
42.84	4.64141
43.06	130.639
43.28	8.62356
43.5	8.22696
43.72	0.917922
43.94	6.17156
44.16	42.7273
44.38	6.29973
44.6	2.63415
44.82	0.006311
45.04	4.28277
45.26	3.71707
45.48	5.80833
45.7	23.9314
45.92	15.0293
46.14	1.82305
46.36	8.04606
46.58	1.69304
46.8	5.64043
47.02	7.00371
47.24	4.88739
47.46	4.66651
47.68	0.709082
47.9	7.07188
48.12	4.77139
48.34	4.61876
48.56	13.2312
48.78	53.8953
49	22.6263
49.22	86.6703
49.44	0.228309
49.66	2.74995
49.88	6.92818
50.1	35.3686
50.32	4.69197
50.54	5.15263
50.76	3.67836
50.98	11.1679
51.2	4.61928
51.42	5.99495
51.64	3.74131
51.86	3.81195
52.08	5.99794
52.3	3.46768
52.52	3.41427
52.74	3.50757
52.96	2.60023
53.18	4.26744
53.4	4.41741
53.62	2.18029
53.84	6.005
54.06	6.88043
54.28	1.26735
54.5	6.50797
54.72	13.013
54.94	321.142
55.16	12.1306
55.38	9.94643
55.6	29.6054
55.82	6.41447
56.04	5.41622
56.26	0.603574
56.48	2.56954
56.7	4.54035
56.92	33.8483
57.14	10.2221
57.36	10.0863
57.58	5.90916
57.8	9.80378
58.02	8.96178
58.24	2.94843
58.46	39.7377
58.68	5.69698
58.9	16.3188
59.12	1.32672
59.34	5.82329
59.56	7.46402
59.78	3.50941
60	2.55692
60.22	7.5705
60.44	12.8103
60.66	91.9302
60.88	9.21792
61.1	10.1227
61.32	5.63231
61.54	0.656113
61.76	6.88963
61.98	3.30573
62.2	3.24548
62.42	4.17045
62.64	15.0751
62.86	0.739974
63.08	7.82407
63.3	6.48963
63.52	16.2911
63.74	20.0819
63.96	5.0637
64.18	0.210561
64.4	6.62706
64.62	13.3031
64.84	4.96427
65.06	6.70901
65.28	1.52605
65.5	2.7954
65.72	8.35271
65.94	21.0137
66.16	4.56259
66.38	3.19658
66.6	45.528
66.82	59.5788
67.04	50.0209
67.26	1.19849
67.48	16.6517
67.7	18.139
67.92	3.81219
68.14	30.2472
68.36	11.6608
68.58	3.07482
68.8	1.70524
69.02	2.90677
69.24	78.0766
69.46	70.1786
69.68	10.4121
69.9	8.17263
70.12	15.9852
70.34	11.0644
70.56	14.653
70.78	1.98826
71	10.1398
71.22	16.3959
71.44	1.65608
71.66	0.755782
71.88	4.73706
72.1	0.117314
72.32	4.13335
72.54	16.3511
72.76	17.2091
72.98	12.8102
73.2	1.67712
73.42	4.6727
73.64	1.60005
73.86	5.57812
74.08	2.71034
74.3	4.00026
74.52	5.14917
74.74	5.11773
74.96	10.0019
75.18	6.06668
75.4	3.31505
75.62	7.47855
75.84	14.4201
76.06	33.4042
76.28	15.1076
76.5	3.9475
76.72	1.86793
76.94	4.61197
77.16	4.59794
77.38	7.48218
77.6	8.38137
77.82	10.0668
78.04	4.85054
78.26	9.00497
78.48	99.0823
78.7	41.1069
78.92	2.20293
79.14	8.17291
79.36	0.409719
79.58	0.317357
79.8	14.0206
80.02	9.41255
80.24	4.03598
80.46	2.45023
80.68	0.678205
80.9	3.87904
81.12	5.05596
81.34	7.23016
81.56	8.14023
81.78	3.93906
82	1.71273
82.22	5.52663
82.44	2.10582
82.66	3.39019
82.88	1.01431
83.1	3.56098
83.32	1.15925
83.54	8.90944
83.76	8.5636
83.98	9.57608
84.2	7.54157
84.42	1.59783
84.64	7.92216
84.86	24.3175
85.08	0.619712
85.3	4.03805
85.52	2.40316
85.74	1.32448
85.96	0.049499
86.18	1.44085
86.4	2.72982
86.62	0.138742
86.84	2.79062
87.06	5.6904
87.28	4.4798
87.5	4.47695
87.72	2.34032
87.94	5.29491
88.16	8.31614
88.38	4.3394
88.6	14.3144
88.82	4.2671
89.04	7.3829
89.26	11.5131
89.48	7.88865
89.7	8.0564
89.92	7.40319
