Measurement: Powder, Xray Data XY Processed
Mineral: Topaz
Rruff sample: R060026
Ideal chemistry: Al_2_SiO_4_F_2_
Locality: Capao Topaz mine, Minas Gerais, Brazil, GPS Coordinates: 20 25 58 S, 43 38 25 W, 3694 ft. ASL
Source: Eric Van Valkenburg
Description: Transparent brown prismatic crystal
Diffraction sample description: Powder
Measured chemistry: Al_2.00_Si_1.00_O_4_(F_0.60_(OH)_0.40_)_2_
Cell parameters: a: 4.6629(2) b: 8.8349(3) c: 8.3876(2) alpha: 90 beta: 90 gamma: 90 volume: 345.54(1) crystal system: orthorhombic
x	intensity
5	0
5.22	1.95326
5.44	8.55452
5.66	9.19149
5.88	0.06036
6.1	9.12466
6.32	11.2947
6.54	8.51342
6.76	8.63072
6.98	16.315
7.2	17.4205
7.42	9.40765
7.64	3.39661
7.86	4.31466
8.08	12.2287
8.3	0.094375
8.52	9.26371
8.74	8.57945
8.96	0.127773
9.18	0.858474
9.4	0.072814
9.62	1.2764
9.84	0.684724
10.06	0.00124
10.28	0.876598
10.5	6.21442
10.72	7.42951
10.94	4.43027
11.16	5.39711
11.38	1.43917
11.6	5.56166
11.82	2.28755
12.04	5.64145
12.26	9.30003
12.48	10.9831
12.7	4.78184
12.92	5.69921
13.14	4.28686
13.36	6.00329
13.58	3.62495
13.8	5.58419
14.02	11.218
14.24	6.9717
14.46	0.729981
14.68	8.08531
14.9	4.03459
15.12	0.050131
15.34	2.72625
15.56	12.0558
15.78	3.30386
16	2.59164
16.22	3.30571
16.44	5.39537
16.66	3.74108
16.88	5.90836
17.1	6.19421
17.32	9.48789
17.54	0.760756
17.76	9.85047
17.98	1.74296
18.2	1.76517
18.42	8.75475
18.64	9.81204
18.86	14.7495
19.08	5.56354
19.3	4.5982
19.52	1.62443
19.74	8.36915
19.96	5.88226
20.18	7.63613
20.4	4.71095
20.62	11.3442
20.84	11.2473
21.06	9.17892
21.28	11.2649
21.5	10.2989
21.72	8.21197
21.94	15.0517
22.16	0.966856
22.38	9.33892
22.6	6.8196
22.82	9.85423
23.04	6.88254
23.26	9.86199
23.48	11.0421
23.7	6.91807
23.92	16.5897
24.14	95.3949
24.36	7.29116
24.58	1.09359
24.8	4.57906
25.02	9.09268
25.24	6.33267
25.46	6.99296
25.68	11.51
25.9	6.24313
26.12	10.0553
26.34	4.613
26.56	8.0698
26.78	11.4571
27	2.0965
27.22	7.42651
27.44	16.8804
27.66	2.91059
27.88	127.249
28.1	15.4791
28.32	12.4108
28.54	1.65434
28.76	5.05163
28.98	5.40203
29.2	4.83455
29.42	97.1835
29.64	29.8986
29.86	41.6858
30.08	20.142
30.3	35.7057
30.52	68.0718
30.74	11.6153
30.96	2.16682
31.18	7.17353
31.4	8.17841
31.62	14.5884
31.84	0.284407
32.06	5.17402
32.28	8.89772
32.5	11.2845
32.72	7.34604
32.94	15.7014
33.16	11.7606
33.38	11.8203
33.6	11.5204
33.82	10.517
34.04	1.75383
34.26	13.5824
34.48	7.50877
34.7	4.51326
34.92	2.5848
35.14	20.5529
35.36	9.91942
35.58	0.243282
35.8	3.78855
36.02	14.3257
36.24	15.558
36.46	7.6567
36.68	10.6548
36.9	5.3929
37.12	4.21157
37.34	6.12258
37.56	26.9903
37.78	50.7573
38	11.5575
38.22	58.8782
38.44	7.93907
38.66	10.8508
38.88	23.0103
39.1	12.3647
39.32	7.70221
39.54	9.94578
39.76	9.10852
39.98	10.294
40.2	13.6477
40.42	9.4848
40.64	7.33874
40.86	35.3876
41.08	9.77725
41.3	7.37507
41.52	10.5583
41.74	10.0511
41.96	4.53376
42.18	18.0634
42.4	10.1817
42.62	7.2893
42.84	32.229
43.06	45.0535
43.28	7.24674
43.5	11.6874
43.72	6.51177
43.94	31.9743
44.16	7.35824
44.38	7.75608
44.6	9.13766
44.82	11.4294
45.04	6.40496
45.26	6.96129
45.48	14.9488
45.7	13.8132
45.92	0.468706
46.14	0.806229
46.36	4.27628
46.58	11.7448
46.8	22.2222
47.02	5.55561
47.24	6.01979
47.46	9.41541
47.68	6.30708
47.9	3.43
48.12	2.55606
48.34	4.77957
48.56	10.5648
48.78	22.5246
49	63.3298
49.22	10.4686
49.44	6.52733
49.66	5.44921
49.88	52.672
50.1	1.88209
50.32	1.41501
50.54	8.77715
50.76	14.235
50.98	3.55667
51.2	7.74413
51.42	6.0362
51.64	4.99539
51.86	0.140692
52.08	1.18895
52.3	4.36834
52.52	6.41784
52.74	13.4693
52.96	4.15209
53.18	7.343
53.4	12.1344
53.62	3.13416
53.84	11.034
54.06	0.134478
54.28	9.7182
54.5	8.58773
54.72	26.3295
54.94	17.6144
55.16	8.38195
55.38	12.4674
55.6	3.21935
55.82	11.1874
56.04	2.35161
56.26	3.67283
56.48	10.7466
56.7	13.8032
56.92	7.84737
57.14	6.47681
57.36	2.18538
57.58	9.15889
57.8	11.9405
58.02	9.99245
58.24	9.13856
58.46	19.1031
58.68	5.02016
58.9	1.09197
59.12	4.11819
59.34	8.12847
59.56	1.44912
59.78	2.65871
60	3.70397
60.22	19.0384
60.44	45.9365
60.66	22.9035
60.88	6.07046
61.1	9.11517
61.32	5.17665
61.54	1.31553
61.76	5.04296
61.98	2.24455
62.2	6.5029
62.42	10.3832
62.64	8.56777
62.86	3.17643
63.08	4.78773
63.3	4.09226
63.52	4.96806
63.74	7.87311
63.96	3.88965
64.18	5.6412
64.4	10.3578
64.62	11.8631
64.84	16.5365
65.06	2.30183
65.28	7.76209
65.5	2.33425
65.72	16.7158
65.94	2.4081
66.16	9.1451
66.38	25.6934
66.6	17.2145
66.82	4.51101
67.04	25.7322
67.26	29.7847
67.48	13.1795
67.7	1.85091
67.92	9.95384
68.14	5.22209
68.36	11.4993
68.58	2.84339
68.8	3.03927
69.02	18.2748
69.24	11.276
69.46	15.6024
69.68	0.542481
69.9	8.05985
70.12	0.618112
70.34	5.75511
70.56	4.68407
70.78	5.53101
71	6.72803
71.22	4.96181
71.44	6.15791
71.66	7.42011
71.88	9.27601
72.1	5.58913
72.32	6.60315
72.54	1.10542
72.76	5.94191
72.98	6.63905
73.2	0.249913
73.42	4.72501
73.64	3.62956
73.86	20.773
74.08	13.8094
74.3	11.9268
74.52	9.67167
74.74	6.62798
74.96	11.2419
75.18	3.01774
75.4	4.02166
75.62	10.1848
75.84	10.0862
76.06	5.03711
76.28	5.64106
76.5	5.27961
76.72	9.35599
76.94	8.48607
77.16	5.61912
77.38	6.61661
77.6	1.76017
77.82	7.84869
78.04	8.76164
78.26	1.16715
78.48	6.90836
78.7	3.21507
78.92	6.26415
79.14	7.35471
79.36	1.32666
79.58	0.355202
79.8	16.4968
80.02	10.6666
80.24	6.60319
80.46	8.9443
80.68	10.06
80.9	8.36083
81.12	7.25687
81.34	5.62413
81.56	8.53569
81.78	9.49381
82	9.49591
82.22	8.36404
82.44	2.02839
82.66	12.849
82.88	12.2454
83.1	6.2066
83.32	4.87307
83.54	4.72981
83.76	3.30793
83.98	2.32017
84.2	5.35435
84.42	3.65825
84.64	9.80128
84.86	6.95896
85.08	9.43933
85.3	4.70511
85.52	5.74877
85.74	5.94733
85.96	6.20978
86.18	8.44519
86.4	2.67128
86.62	4.59209
86.84	0.777043
87.06	8.32528
87.28	8.31996
87.5	6.83031
87.72	2.62934
87.94	0.369625
88.16	5.06443
88.38	1.86173
88.6	13.9801
88.82	12.8614
89.04	3.93742
89.26	7.6691
89.48	6.9623
89.7	7.04135
89.92	4.2451
