Measurement: Powder, Xray Data XY Processed
Mineral: Tremolite
Rruff sample: R040109
Ideal chemistry: [box]Ca_2_Mg_5_Si_8_O_22_(OH)_2_
Locality: Cassiar, British Columbia, Canada
Source: University of Arizona Mineral Museum
Description: Green fine-grained massive
Diffraction sample description: Powder
Measured chemistry: [box]Ca_1.99_(Mg_0.90_Fe_0.08_Al_0.01_)_5_Si_8.01_O_22_(OH)_2_
Cell parameters: a: 9.8490(3) b: 18.074(1) c: 5.2800(3) alpha: 90. beta: 104.754(4) gamma: 90. volume: 908.96(6) crystal system: monoclinic
x	intensity
5	0
5.22	11.1904
5.44	15.9365
5.66	9.0449
5.88	19.7592
6.1	4.62917
6.32	3.68757
6.54	12.5617
6.76	4.78315
6.98	11.6349
7.2	14.2389
7.42	3.69277
7.64	11.869
7.86	4.08293
8.08	5.49279
8.3	1.39576
8.52	12.1889
8.74	8.07625
8.96	11.6751
9.18	8.88022
9.4	9.3727
9.62	22.5404
9.84	124.276
10.06	8.62956
10.28	40.3308
10.5	394.459
10.72	16.5177
10.94	1.02718
11.16	7.62075
11.38	6.2711
11.6	0.96648
11.82	2.80856
12.04	5.11417
12.26	8.89071
12.48	3.14439
12.7	9.69615
12.92	1.84608
13.14	1.66874
13.36	16.4761
13.58	8.61262
13.8	20.4123
14.02	2.4944
14.24	5.42524
14.46	9.9144
14.68	9.38025
14.9	9.77954
15.12	9.08017
15.34	15.512
15.56	14.1164
15.78	8.61508
16	11.6231
16.22	3.01412
16.44	11.7584
16.66	0.772614
16.88	7.33101
17.1	1.68656
17.32	13.1667
17.54	27.5183
17.76	4.86846
17.98	14.4053
18.2	82.8129
18.42	18.5096
18.64	24.4101
18.86	0.387444
19.08	3.47884
19.3	2.78531
19.52	8.97512
19.74	43.0446
19.96	8.20028
20.18	0.607832
20.4	7.57393
20.62	5.54536
20.84	5.87321
21.06	20.9086
21.28	10.4036
21.5	9.002
21.72	16.7017
21.94	1.57302
22.16	1.52664
22.38	7.45267
22.6	3.49668
22.82	19.7274
23.04	17.9361
23.26	5.98681
23.48	9.23768
23.7	6.93478
23.92	4.19558
24.14	9.74912
24.36	5.11658
24.58	11.0175
24.8	4.42098
25.02	10.1331
25.24	10.659
25.46	6.87185
25.68	10.6026
25.9	10.05
26.12	15.5004
26.34	143.862
26.56	17.6065
26.78	16.9123
27	4.65004
27.22	198.838
27.44	6.66274
27.66	4.46598
27.88	10.3454
28.1	13.839
28.32	9.84867
28.54	286.793
28.76	18.5373
28.98	9.69753
29.2	3.96415
29.42	8.13019
29.64	12.3696
29.86	10.98
30.08	11.3323
30.3	20.7144
30.52	42.2601
30.74	7.71436
30.96	8.92118
31.18	6.70131
31.4	7.81103
31.62	8.98233
31.84	42.7851
32.06	22.4901
32.28	11.7853
32.5	13.4577
32.72	50.0916
32.94	27.2099
33.16	193.159
33.38	15.7162
33.6	7.08373
33.82	9.38515
34.04	2.55058
34.26	5.7413
34.48	19.0059
34.7	36.936
34.92	12.7848
35.14	26.1971
35.36	70.501
35.58	18.8453
35.8	6.63262
36.02	2.24241
36.24	2.09152
36.46	8.07943
36.68	6.9527
36.9	15.2965
37.12	6.69735
37.34	7.70238
37.56	8.74074
37.78	30.8065
38	15.2815
38.22	9.03922
38.44	58.2349
38.66	34.2746
38.88	16.4945
39.1	32.6392
39.32	12.7545
39.54	29.8113
39.76	0.79319
39.98	9.91242
40.2	10.2661
40.42	6.52113
40.64	12.6452
40.86	20.2448
41.08	2.35683
41.3	15.0129
41.52	12.2279
41.74	105.148
41.96	5.86038
42.18	12.2742
42.4	13.4925
42.62	2.81418
42.84	0.646454
43.06	2.9097
43.28	23.6183
43.5	5.59086
43.72	0.358913
43.94	5.68155
44.16	2.54956
44.38	21.062
44.6	11.6891
44.82	17.9287
45.04	46.257
45.26	18.8475
45.48	13.8012
45.7	13.8926
45.92	8.40275
46.14	11.4663
46.36	5.75188
46.58	12.2795
46.8	10.0717
47.02	15.4109
47.24	6.52451
47.46	4.6916
47.68	13.6291
47.9	8.42451
48.12	35.0603
48.34	16.7185
48.56	10.1985
48.78	29.7575
49	11.8796
49.22	0.105639
49.44	11.3984
49.66	4.84066
49.88	13.113
50.1	9.83044
50.32	6.36089
50.54	11.1643
50.76	9.74053
50.98	8.20258
51.2	13.4225
51.42	17.6477
51.64	2.00404
51.86	22.4078
52.08	2.15508
52.3	28.186
52.52	10.8791
52.74	3.2322
52.96	12.2594
53.18	11.8707
53.4	14.9693
53.62	1.38191
53.84	10.3831
54.06	7.86358
54.28	16.2823
54.5	20.8863
54.72	7.55854
54.94	4.78789
55.16	16.4827
55.38	0.479538
55.6	47.6621
55.82	31.7669
56.04	8.1582
56.26	15.8008
56.48	13.3157
56.7	8.5605
56.92	15.7741
57.14	4.97443
57.36	2.89124
57.58	0.311169
57.8	6.62817
58.02	6.72434
58.24	16.6373
58.46	46.2969
58.68	7.82721
58.9	4.43993
59.12	7.1315
59.34	11.9358
59.56	11.7357
59.78	7.54339
60	6.23696
60.22	15.0894
60.44	29.9405
60.66	14.0329
60.88	8.22126
61.1	11.6364
61.32	10.9558
61.54	36.1858
61.76	27.2979
61.98	2.50823
62.2	15.6895
62.42	10.7592
62.64	2.67098
62.86	1.48821
63.08	2.23268
63.3	12.8079
63.52	0.38328
63.74	11.9673
63.96	3.94222
64.18	12.2702
64.4	3.66548
64.62	18.0426
64.84	27.9545
65.06	11.483
65.28	9.33762
65.5	4.10117
65.72	7.53343
65.94	18.04
66.16	12.4653
66.38	10.2214
66.6	13.3609
66.82	20.2496
67.04	2.51105
67.26	12.4118
67.48	9.35482
67.7	2.06978
67.92	8.52259
68.14	8.14639
68.36	13.1962
68.58	17.0664
68.8	17.1761
69.02	4.27963
69.24	7.35251
69.46	1.61712
69.68	0.8615
69.9	8.88883
70.12	13.7439
70.34	6.72793
70.56	8.53844
70.78	6.11236
71	15.158
71.22	18.7409
71.44	9.29604
71.66	3.60766
71.88	5.81953
72.1	12.0693
72.32	7.9888
72.54	14.4899
72.76	12.6377
72.98	16.9518
73.2	16.0408
73.42	1.17773
73.64	4.76252
73.86	8.18387
74.08	7.50382
74.3	8.56799
74.52	6.33829
74.74	2.30232
74.96	8.72791
75.18	14.446
75.4	15.9516
75.62	5.32429
75.84	4.31447
76.06	1.14625
76.28	10.9834
76.5	2.77702
76.72	10.0434
76.94	2.08553
77.16	0.440062
77.38	2.90389
77.6	10.8726
77.82	6.65754
78.04	4.57363
78.26	7.38636
78.48	7.76414
78.7	3.53745
78.92	16.4883
79.14	4.4422
79.36	1.63858
79.58	10.6891
79.8	18.8219
80.02	12.8928
80.24	0.974174
80.46	7.5565
80.68	22.6917
80.9	14.4326
81.12	6.52669
81.34	5.86307
81.56	4.06989
81.78	4.94295
82	1.70423
82.22	3.67725
82.44	3.44789
82.66	9.54692
82.88	11.2613
83.1	15.2968
83.32	12.2079
83.54	5.77274
83.76	2.53739
83.98	9.30761
84.2	6.79493
84.42	7.87138
84.64	1.05454
84.86	10.8324
85.08	17.024
85.3	3.99748
85.52	4.91831
85.74	8.9202
85.96	3.49011
86.18	2.45019
86.4	11.0373
86.62	7.72387
86.84	11.9745
87.06	14.1785
87.28	0.571992
87.5	0.215055
87.72	3.90744
87.94	0.069674
88.16	8.24248
88.38	5.24937
88.6	3.13202
88.82	3.96203
89.04	10.9849
89.26	8.55012
89.48	8.30332
89.7	7.34187
89.92	8.63566
