Measurement: Powder, Xray Data XY Processed
Mineral: Tremolite
Rruff sample: R050173
Ideal chemistry: [box]Ca_2_Mg_5_Si_8_O_22_(OH)_2_
Locality: Fort Dauphin, Madagascar
Source: Marcus Origlieri
Description: Mass of colorless acicular crystals
Diffraction sample description: Powder
Measured chemistry: [box]Ca_2.00_Mg_5.00_Si_8.00_O_22_(OH)_2_
Cell parameters: a: 9.8380(1) b: 18.0541(4) c: 5.2729(5) alpha: 90. beta: 104.750(3) gamma: 90. volume: 905.69(9) crystal system: monoclinic
x	intensity
5	0
5.22	1.748
5.44	8.145
5.66	9.909
5.88	14.802
6.1	5.599
6.32	6.561
6.54	17.21
6.76	11.034
6.98	4.235
7.2	11.947
7.42	9.225
7.64	11.984
7.86	5.693
8.08	7.163
8.3	5.285
8.52	1.961
8.74	6.75
8.96	11.412
9.18	7.986
9.4	9.161
9.62	11.622
9.84	106.662
10.06	14.581
10.28	25.221
10.5	1495.29
10.72	6.508
10.94	0.513
11.16	5.992
11.38	11.566
11.6	15.418
11.82	7.093
12.04	0.249
12.26	6.337
12.48	0.51
12.7	9.721
12.92	10.755
13.14	6.51
13.36	7.215
13.58	6.82
13.8	1.969
14.02	8.785
14.24	4.763
14.46	5.699
14.68	2.766
14.9	0.267
15.12	3.516
15.34	5.474
15.56	16.003
15.78	0.547
16	13.976
16.22	2.529
16.44	11.115
16.66	0.714
16.88	4.864
17.1	7.314
17.32	10.822
17.54	23.288
17.76	9.591
17.98	18.908
18.2	23.346
18.42	7.84
18.64	253.629
18.86	12.656
19.08	7.636
19.3	9.412
19.52	8.967
19.74	20.423
19.96	7.995
20.18	13.484
20.4	23.002
20.62	6.524
20.84	32.459
21.06	62.846
21.28	11.913
21.5	4.706
21.72	5.588
21.94	1.443
22.16	5.809
22.38	3.84
22.6	7.816
22.82	7.743
23.04	1.846
23.26	12.896
23.48	12.83
23.7	12.881
23.92	11.72
24.14	0.965
24.36	11.799
24.58	1.707
24.8	10.867
25.02	7.675
25.24	7.395
25.46	16.121
25.68	13.503
25.9	8.415
26.12	8.763
26.34	24.954
26.56	12.571
26.78	9.484
27	3.048
27.22	254.315
27.44	9.124
27.66	1.929
27.88	8.805
28.1	4.197
28.32	26.228
28.54	1010.83
28.76	33.234
28.98	11.525
29.2	14.276
29.42	8.718
29.64	1.177
29.86	8.736
30.08	6.385
30.3	7.687
30.52	24.789
30.74	12.041
30.96	10.088
31.18	4.43
31.4	5.904
31.62	9.189
31.84	36.477
32.06	17.781
32.28	1.898
32.5	6.22
32.72	14.683
32.94	11.711
33.16	47.13
33.38	5.656
33.6	3.001
33.82	2.388
34.04	15.832
34.26	4.206
34.48	6.636
34.7	21.144
34.92	0.443
35.14	8.666
35.36	9.631
35.58	11.944
35.8	11.175
36.02	3.234
36.24	7.219
36.46	1.471
36.68	6.684
36.9	6.898
37.12	8.443
37.34	11.057
37.56	9.224
37.78	37.019
38	9.183
38.22	6.242
38.44	18.439
38.66	7.76
38.88	13.072
39.1	10.716
39.32	12.763
39.54	9.648
39.76	3.787
39.98	5.156
40.2	1.371
40.42	4.426
40.64	5.435
40.86	12.597
41.08	1.351
41.3	2.297
41.52	9.809
41.74	24.821
41.96	5.396
42.18	12.529
42.4	9.569
42.62	4.595
42.84	8.666
43.06	6.287
43.28	9.285
43.5	4.278
43.72	5.366
43.94	19.409
44.16	7.324
44.38	7.171
44.6	5.255
44.82	7.421
45.04	13.085
45.26	18.755
45.48	9.01
45.7	6.76
45.92	12.896
46.14	4.784
46.36	8.734
46.58	1.02
46.8	3.145
47.02	0.948
47.24	19.151
47.46	5.421
47.68	5.8
47.9	4.88
48.12	28.324
48.34	3.515
48.56	7.675
48.78	15.146
49	15.995
49.22	2.064
49.44	1.239
49.66	0.548
49.88	4.794
50.1	8.811
50.32	26.14
50.54	11.091
50.76	2.55
50.98	7.034
51.2	3.962
51.42	3.403
51.64	9.658
51.86	1.125
52.08	4.509
52.3	15.674
52.52	13.78
52.74	11.726
52.96	0.642
53.18	5.426
53.4	11.091
53.62	0.149
53.84	0.527
54.06	6.33
54.28	6.031
54.5	9.44
54.72	6.112
54.94	7.928
55.16	1.695
55.38	2.289
55.6	12.156
55.82	15.1
56.04	8.179
56.26	7.224
56.48	7.557
56.7	5.923
56.92	10.048
57.14	6.17
57.36	4.29
57.58	1.536
57.8	6.959
58.02	14.617
58.24	16.632
58.46	9.637
58.68	5.932
58.9	4.562
59.12	12.345
59.34	7.289
59.56	3.239
59.78	10.458
60	4.104
60.22	5.776
60.44	15.942
60.66	7.934
60.88	10.923
61.1	0.869
61.32	7
61.54	5.842
61.76	17.035
61.98	1.955
62.2	2.013
62.42	6.013
62.64	9.318
62.86	2.277
63.08	11.491
63.3	4.587
63.52	1.562
63.74	13.542
63.96	2.526
64.18	7.768
64.4	0.102
64.62	9.142
64.84	32.254
65.06	6.184
65.28	5.551
65.5	5.66
65.72	8.713
65.94	10.628
66.16	12.655
66.38	1.659
66.6	6.696
66.82	2.447
67.04	0.372
67.26	9.315
67.48	0.081
67.7	10.168
67.92	3.131
68.14	2.127
68.36	5.129
68.58	5.229
68.8	7.293
69.02	8.291
69.24	19.338
69.46	18.347
69.68	0.609
69.9	6.258
70.12	7.248
70.34	9.303
70.56	4.738
70.78	5.139
71	8.099
71.22	2.229
71.44	1.176
71.66	4.221
71.88	0.684
72.1	6.265
72.32	11.298
72.54	5.684
72.76	3.549
72.98	5.411
73.2	14.414
73.42	1.579
73.64	2.772
73.86	2.881
74.08	6.215
74.3	4.457
74.52	6.804
74.74	1.064
74.96	3.798
75.18	2.836
75.4	7.989
75.62	5.021
75.84	9.202
76.06	5.203
76.28	11.189
76.5	6.144
76.72	2.293
76.94	13.377
77.16	1.329
77.38	6.683
77.6	5.71
77.82	1.691
78.04	9.786
78.26	3.67
78.48	8.766
78.7	3.768
78.92	9.599
79.14	11.373
79.36	5.13
79.58	8.146
79.8	0.912
80.02	8.854
80.24	7.985
80.46	5.263
80.68	8.373
80.9	8.316
81.12	5.375
81.34	5.514
81.56	14.587
81.78	0.381
82	0.367
82.22	2.801
82.44	5.255
82.66	5.177
82.88	1.883
83.1	4.783
83.32	5.928
83.54	2.983
83.76	2.083
83.98	5.081
84.2	3.146
84.42	5.354
84.64	5.333
84.86	10.251
85.08	7.361
85.3	4.355
85.52	6.34
85.74	8.132
85.96	4.104
86.18	5.007
86.4	41.042
86.62	11.026
86.84	6.86
87.06	1.909
87.28	0.665
87.5	5.813
87.72	5.973
87.94	0.212
88.16	6.608
88.38	8.858
88.6	2.129
88.82	3.27
89.04	2.525
89.26	1.695
89.48	6.098
89.7	6.709
89.92	0.288
