Measurement: Powder, Xray Data XY Processed
Mineral: Tremolite
Rruff sample: R050210
Ideal chemistry: [box]Ca_2_Mg_5_Si_8_O_22_(OH)_2_
Locality: Sugar Lake, Cherryville, British Columbia, Canada
Source: Lloyd Twaites
Description: Green bladed crystal fragment
Diffraction sample description: Powder
Measured chemistry: (Na_0.34_K_0.06_)(Ca_1.96_Mg_0.01_)Mg_4.94_(Si_7.50_Al_0.46_)O_22_(OH)_2_
Cell parameters: a: 9.8483(4) b: 18.042(1) c: 5.2747(8) alpha: 90. beta: 104.806(8) gamma: 90. volume: 906.1(1) crystal system: monoclinic
x	intensity
5	0
5.22	14.0236
5.44	13.5734
5.66	11.1234
5.88	18.1715
6.1	14.4785
6.32	16.3717
6.54	14.6169
6.76	0.734021
6.98	13.0471
7.2	5.85145
7.42	2.91651
7.64	3.54455
7.86	3.32589
8.08	11.5516
8.3	1.05549
8.52	0.232229
8.74	1.88516
8.96	2.84115
9.18	3.74215
9.4	10.5391
9.62	8.25806
9.84	69.0918
10.06	2.17306
10.28	11.1929
10.5	381.766
10.72	13.1613
10.94	2.60737
11.16	7.65253
11.38	5.97277
11.6	3.55368
11.82	7.96343
12.04	8.3585
12.26	5.57355
12.48	5.82409
12.7	3.80794
12.92	8.4236
13.14	3.71542
13.36	4.03337
13.58	0.355247
13.8	5.32324
14.02	5.35908
14.24	9.61487
14.46	3.75607
14.68	0.884074
14.9	5.92466
15.12	5.85551
15.34	2.34732
15.56	4.25699
15.78	2.40684
16	6.42047
16.22	4.50508
16.44	6.40392
16.66	2.37432
16.88	4.33297
17.1	1.34956
17.32	5.33228
17.54	19.3158
17.76	1.73998
17.98	8.61667
18.2	24.9876
18.42	5.32286
18.64	49.3315
18.86	7.39555
19.08	6.52633
19.3	1.51283
19.52	11.8648
19.74	28.8957
19.96	16.9334
20.18	2.97924
20.4	5.78414
20.62	6.7744
20.84	5.52036
21.06	17.7116
21.28	8.82735
21.5	4.20312
21.72	1.29878
21.94	3.14003
22.16	0.260026
22.38	6.59212
22.6	1.70577
22.82	3.86326
23.04	9.83751
23.26	5.90154
23.48	0.082168
23.7	3.21553
23.92	5.98344
24.14	4.09611
24.36	3.34748
24.58	2.30253
24.8	2.0279
25.02	1.20632
25.24	6.9973
25.46	3.78093
25.68	3.51988
25.9	2.38021
26.12	2.01229
26.34	5.50398
26.56	10.1056
26.78	7.94929
27	3.91074
27.22	69.6828
27.44	3.85486
27.66	28.3928
27.88	4.06206
28.1	0.135396
28.32	1.95727
28.54	380.389
28.76	27.9017
28.98	0.560851
29.2	3.70458
29.42	56.1497
29.64	22.0252
29.86	95.0212
30.08	9.53616
30.3	87.2666
30.52	41.3538
30.74	0.858689
30.96	39.4163
31.18	3.58562
31.4	6.25453
31.62	2.74745
31.84	23.2474
32.06	11.5813
32.28	3.94664
32.5	0.117504
32.72	17.1153
32.94	5.304
33.16	309.962
33.38	11.2282
33.6	6.82846
33.82	2.45624
34.04	5.42083
34.26	4.34126
34.48	4.17305
34.7	15.9962
34.92	3.79675
35.14	3.51099
35.36	3.55034
35.58	28.219
35.8	11.2629
36.02	11.7403
36.24	1.97021
36.46	1.83212
36.68	3.26168
36.9	2.52541
37.12	2.23219
37.34	16.9404
37.56	5.72947
37.78	27.4718
38	4.40554
38.22	0.840328
38.44	13.6005
38.66	14.6177
38.88	33.8823
39.1	6.04
39.32	40.1857
39.54	26.3479
39.76	1.33551
39.98	5.56972
40.2	1.03669
40.42	4.15057
40.64	4.30168
40.86	11.3148
41.08	5.08515
41.3	2.84949
41.52	3.61993
41.74	13.5382
41.96	24.3193
42.18	32.2388
42.4	22.2593
42.62	7.07293
42.84	7.32735
43.06	14.4004
43.28	24.4488
43.5	2.61919
43.72	3.71874
43.94	0.374752
44.16	2.6375
44.38	20.8091
44.6	3.20735
44.82	8.39718
45.04	13.174
45.26	6.80993
45.48	4.59593
45.7	1.41305
45.92	0.767088
46.14	8.40329
46.36	2.01473
46.58	3.62463
46.8	31.1291
47.02	8.34351
47.24	4.59322
47.46	12.1893
47.68	18.8548
47.9	1.59319
48.12	23.7201
48.34	0.070735
48.56	28.1978
48.78	44.9115
49	12.2882
49.22	0.314948
49.44	20.1675
49.66	9.77769
49.88	1.6732
50.1	3.39361
50.32	22.1649
50.54	13.4606
50.76	5.96632
50.98	9.47016
51.2	1.6771
51.42	1.63992
51.64	12.0596
51.86	6.12981
52.08	8.21226
52.3	25.9808
52.52	3.82675
52.74	1.64675
52.96	2.54914
53.18	3.25859
53.4	22.9632
53.62	5.81679
53.84	2.49497
54.06	2.30577
54.28	5.13035
54.5	9.80609
54.72	0.405209
54.94	13.352
55.16	4.1527
55.38	5.12097
55.6	2.00451
55.82	15.9198
56.04	4.90349
56.26	11.9299
56.48	1.83775
56.7	14.8464
56.92	9.09152
57.14	12.0924
57.36	1.15668
57.58	7.09666
57.8	2.1124
58.02	5.12109
58.24	12.098
58.46	9.0845
58.68	13.1272
58.9	6.42895
59.12	11.3096
59.34	7.98593
59.56	2.91963
59.78	8.79272
60	4.69894
60.22	4.44365
60.44	28.528
60.66	10.5626
60.88	3.72999
61.1	11.1409
61.32	3.70372
61.54	1.80526
61.76	15.4495
61.98	0.646027
62.2	0.107363
62.42	44.2346
62.64	12.3896
62.86	5.39371
63.08	1.35703
63.3	9.26561
63.52	4.76474
63.74	1.58157
63.96	1.40514
64.18	5.9115
64.4	10.7454
64.62	13.5292
64.84	35.2992
65.06	15.5142
65.28	7.52837
65.5	3.73548
65.72	9.80392
65.94	4.23165
66.16	0.388817
66.38	2.15647
66.6	6.44116
66.82	3.90325
67.04	9.14062
67.26	6.31364
67.48	2.22097
67.7	3.28442
67.92	5.28571
68.14	6.04131
68.36	3.87106
68.58	0.800269
68.8	18.6693
69.02	15.3401
69.24	6.34853
69.46	10.2352
69.68	6.15005
69.9	6.0308
70.12	2.87639
70.34	1.19614
70.56	5.06604
70.78	18.1809
71	18.9263
71.22	9.66855
71.44	8.8156
71.66	0.610367
71.88	4.55004
72.1	29.4044
72.32	11.4802
72.54	4.83653
72.76	4.76662
72.98	4.5399
73.2	9.41523
73.42	0.220996
73.64	0.065295
73.86	4.90485
74.08	6.9264
74.3	2.10336
74.52	3.39938
74.74	0.17604
74.96	5.74924
75.18	0.894296
75.4	3.03725
75.62	5.00307
75.84	1.08208
76.06	2.27331
76.28	76.2884
76.5	26.3358
76.72	3.40098
76.94	6.30557
77.16	3.30773
77.38	0.321874
77.6	2.37003
77.82	10.4767
78.04	1.47938
78.26	0.496384
78.48	10.3543
78.7	3.36075
78.92	1.40769
79.14	3.44421
79.36	1.7172
79.58	8.36715
79.8	1.4506
80.02	12.4909
80.24	9.47315
80.46	0.436272
80.68	4.32884
80.9	7.41416
81.12	4.42752
81.34	3.53125
81.56	7.37539
81.78	4.37661
82	5.69006
82.22	4.5296
82.44	0.530475
82.66	7.66669
82.88	2.713
83.1	1.22605
83.32	2.76357
83.54	2.85139
83.76	1.79379
83.98	0.865951
84.2	3.95306
84.42	3.85496
84.64	2.8994
84.86	0.914097
85.08	2.92512
85.3	3.99349
85.52	0.050352
85.74	1.24762
85.96	4.29095
86.18	0.463088
86.4	6.59524
86.62	8.5076
86.84	5.49362
87.06	5.58526
87.28	7.64228
87.5	5.76257
87.72	3.90759
87.94	5.07294
88.16	8.0241
88.38	3.20607
88.6	7.15058
88.82	4.13808
89.04	3.29566
89.26	4.40235
89.48	8.25934
89.7	4.31898
89.92	7.57039
