Measurement: Powder, Xray Data XY Processed
Mineral: Trilithionite
Rruff sample: R040105
Ideal chemistry: KLi_1.5_Al_1.5_(Si_3_Al)O_10_F_2_
Locality: Brown Derby mine, Ohio City, Gunnison County, Colorado, USA
Source: University of Arizona Mineral Museum
Description: Purple hexagonal tablet
Diffraction sample description: Powder
Measured chemistry: (K_0.82_Li_0.14_Na_0.04_)(Li_0.53_Al_0.42_Mn_0.05_)_3_(Si_0.84_Al_0.17_)_4_O_10_((OH)_0.59_F_0.41_)_2_
Cell parameters: a: 9.051(2) b: 5.2259(8) c: 20.1895(7) alpha: 90 beta: 99.52(1) gamma: 90 volume: 941.8(0) crystal system: monoclinic
x	intensity
5	0
5.22	8.61244
5.44	13.3826
5.66	13.6046
5.88	17.2125
6.1	12.8185
6.32	13.023
6.54	19.8684
6.76	22.1715
6.98	5.45001
7.2	1.71876
7.42	6.80078
7.64	1.33071
7.86	15.5795
8.08	38.9969
8.3	1.94283
8.52	19.5111
8.74	110.544
8.96	1396.64
9.18	12.2032
9.4	26.8184
9.62	4.67962
9.84	3.93045
10.06	4.61172
10.28	3.27324
10.5	12.8387
10.72	10.1534
10.94	0.45055
11.16	16.5083
11.38	3.71515
11.6	16.3904
11.82	3.87443
12.04	6.58006
12.26	10.1714
12.48	11.9472
12.7	17.7811
12.92	3.02396
13.14	8.94718
13.36	5.87061
13.58	5.87772
13.8	8.84894
14.02	11.2402
14.24	6.51396
14.46	4.83202
14.68	14.3485
14.9	9.01653
15.12	4.70712
15.34	7.08043
15.56	2.02167
15.78	10.4282
16	8.23078
16.22	6.4753
16.44	4.6315
16.66	1.16526
16.88	10.3438
17.1	4.69437
17.32	22.41
17.55	32.0429
17.77	269.752
17.99	62.6178
18.21	10.2027
18.43	13.5652
18.65	3.75517
18.87	4.94801
19.09	14.6975
19.31	6.49063
19.53	1.43967
19.75	18.3555
19.97	8.45864
20.19	23.7114
20.41	7.65786
20.63	2.9448
20.85	8.82552
21.07	3.8571
21.29	19.6271
21.51	11.9475
21.73	11.0248
21.95	1.90746
22.17	33.8271
22.39	6.76183
22.61	9.30789
22.83	5.47256
23.05	14.8969
23.27	5.59274
23.49	10.3657
23.71	0.056879
23.93	6.68123
24.15	12.7173
24.37	19.4198
24.59	30.995
24.81	14.0111
25.03	7.50689
25.25	7.40227
25.47	31.6747
25.69	29.2613
25.91	3.98941
26.13	21.691
26.35	11.9119
26.57	22.8258
26.79	313.227
27.01	513.201
27.23	20.5887
27.45	0.483624
27.67	18.7252
27.89	43.6653
28.11	3.14153
28.33	2.22925
28.55	13.7851
28.77	35.5604
28.99	47.222
29.21	22.2548
29.43	6.51833
29.65	9.69562
29.87	4.23553
30.09	0.080288
30.31	12.4607
30.53	1.85293
30.75	10.1414
30.97	12.3336
31.19	45.3222
31.41	8.59521
31.63	1.44598
31.85	2.10254
32.07	29.3498
32.29	31.8307
32.51	5.19392
32.73	3.76523
32.95	2.04054
33.17	2.96522
33.39	1.4491
33.61	1.91342
33.83	3.03994
34.05	14.6631
34.27	9.18843
34.49	15.6619
34.71	52.8484
34.93	24.9239
35.15	14.8273
35.37	10.0761
35.59	5.18294
35.81	15.1633
36.03	88.3002
36.25	59.6937
36.47	6.7837
36.69	18.5007
36.91	15.5481
37.13	18.3783
37.35	2.97117
37.57	5.94032
37.79	9.02142
38.01	1.53717
38.23	3.19241
38.45	0.515334
38.67	12.8277
38.89	3.51594
39.11	15.2301
39.33	14.8608
39.55	2.09716
39.77	13.0329
39.99	18.7956
40.21	0.159822
40.43	4.03972
40.65	14.0392
40.87	11.58
41.09	11.4044
41.31	5.98989
41.53	13.2546
41.75	11.1075
41.97	5.38757
42.19	6.43217
42.41	8.42147
42.63	11.1736
42.85	11.3833
43.07	2.24328
43.29	13.5604
43.51	1.78941
43.73	6.30635
43.95	6.57795
44.17	8.55604
44.39	13.0391
44.61	14.7923
44.83	0.940409
45.05	8.5175
45.27	36.1103
45.49	665.766
45.71	1254.77
45.93	16.7239
46.15	10.7035
46.37	7.58492
46.59	7.12137
46.81	16.644
47.03	10.9331
47.25	12.0563
47.47	1.73006
47.69	14.5816
47.91	8.06114
48.13	3.42929
48.35	16.1646
48.57	8.38096
48.79	7.1139
49.01	0.743912
49.23	2.81388
49.45	7.169
49.67	4.81671
49.89	7.90787
50.11	17.2658
50.33	5.55524
50.55	6.84606
50.77	3.11998
50.99	5.88513
51.21	3.96572
51.43	5.03237
51.65	9.20762
51.87	0.93274
52.09	5.89535
52.31	9.95044
52.53	4.64084
52.75	12.2247
52.97	19.7042
53.19	5.1799
53.41	9.72102
53.63	7.14318
53.85	9.54403
54.07	15.1725
54.29	15.8272
54.51	17.3172
54.73	17.9988
54.95	8.96329
55.17	7.15888
55.39	7.40791
55.61	3.0348
55.83	0.417616
56.05	4.09521
56.27	4.31089
56.49	6.46418
56.71	5.64431
56.93	6.64576
57.15	9.60504
57.37	0.378153
57.59	9.49408
57.81	12.4489
58.03	15.1928
58.25	20.5524
58.47	5.48667
58.69	8.39467
58.91	10.604
59.13	9.22293
59.35	6.85612
59.57	15.0035
59.79	8.22934
60.01	6.56858
60.23	13.6035
60.45	5.44729
60.67	5.01362
60.89	1.05411
61.11	7.84178
61.33	12.7286
61.55	21.3376
61.77	10.9385
61.99	1.16593
62.21	13.7233
62.43	1.96126
62.65	6.33285
62.87	8.64093
63.09	7.92279
63.31	4.21755
63.53	14.8543
63.75	3.21147
63.97	10.1463
64.19	10.9075
64.41	12.724
64.63	5.73626
64.85	0.389427
65.07	6.05261
65.29	8.60371
65.51	16.1331
65.73	24.9157
65.95	7.34373
66.17	10.0125
66.39	10.9631
66.61	3.18242
66.83	4.59668
67.05	2.81368
67.27	1.42452
67.49	4.57887
67.71	3.46062
67.93	4.1543
68.15	3.11024
68.37	6.34237
68.59	12.7281
68.81	7.01162
69.03	5.17699
69.25	11.3129
69.47	11.4636
69.69	6.33733
69.91	9.04172
70.13	10.3696
70.35	7.78002
70.57	5.33617
70.79	5.0576
71.01	3.369
71.23	5.05983
71.45	14.3508
71.67	10.8708
71.89	3.46091
72.11	8.28513
72.33	6.44
72.55	5.87851
72.77	9.25651
72.99	3.79895
73.21	1.88003
73.43	16.8687
73.65	5.89081
73.87	7.44917
74.09	9.95667
74.31	7.59882
74.53	13.2507
74.75	4.46361
74.97	8.68439
75.19	7.61055
75.41	9.49976
75.63	0.461336
75.85	4.02408
76.07	9.38648
76.29	16.6218
76.51	129.59
76.73	64.362
76.95	5.97891
77.17	15.7395
77.39	5.07235
77.61	2.50166
77.83	8.81568
78.05	6.14198
78.27	8.74368
78.49	5.30303
78.71	5.12975
78.93	0.288083
79.15	11.2447
79.37	7.40083
79.59	3.40191
79.81	3.53011
80.03	2.41852
80.25	8.35359
80.47	13.2576
80.69	7.07704
80.91	7.80448
81.13	11.9008
81.35	10.3086
81.57	6.48407
81.79	5.77168
82.01	6.07758
82.23	8.32863
82.45	1.35566
82.67	3.78343
82.89	4.13955
83.11	4.14539
83.33	5.31331
83.55	9.40775
83.77	8.29142
83.99	0.668447
84.21	6.20982
84.43	7.14798
84.65	5.75786
84.87	2.70179
85.09	9.62908
85.31	4.38307
85.53	3.29278
85.75	5.4094
85.97	7.30928
86.19	6.04719
86.41	6.21665
86.63	7.22926
86.85	3.00704
87.07	3.08896
87.29	2.19255
87.51	8.53659
87.73	10.6712
87.95	5.86045
88.17	1.96097
88.39	7.23721
88.61	11.5893
88.83	5.65235
89.05	6.98678
89.27	0.338122
89.49	2.43127
89.71	4.61174
89.93	4.4227
