Measurement: Powder, Xray Data XY Processed
Mineral: Trilithionite
Rruff sample: R040101
Ideal chemistry: KLi_1.5_Al_1.5_(Si_3_Al)O_10_F_2_
Locality: Zambezi Region, Mozambique
Source: University of Arizona Mineral Museum
Description: Aggregate of purple hexagonal plates, polytype is 2M1
Diffraction sample description: Powder, cell parameters are from single crystal
Measured chemistry: (K_0.84_Li_0.13_Na_0.02_)(Li_0.54_Al_0.44_Mn_0.02_)_3_(Si_0.82_Al_0.18_)_4_O_10_F_2.00_
Cell parameters: a: 5.189(4) b: 9.000(6) c: 20.13(1) alpha: 90 beta: 95.65(4) gamma: 90 volume: 935.5(4) crystal system: monoclinic
x	intensity
5	0
5.22	17.391
5.44	5.585
5.66	2.85
5.88	10.639
6.1	15.722
6.32	11.804
6.54	2.536
6.76	11.85
6.98	8.311
7.2	3.92
7.42	4.289
7.64	8.433
7.86	1.334
8.08	17.727
8.3	6.916
8.52	13.119
8.74	48.468
8.96	277.702
9.18	7.008
9.4	4.564
9.62	7.344
9.84	3.981
10.06	6.806
10.28	5.423
10.5	9.918
10.72	0.629
10.94	8.913
11.16	5.99
11.38	6.914
11.6	18.877
11.82	9.016
12.04	6.007
12.26	8.228
12.48	10.22
12.7	19.556
12.92	8.787
13.14	4.598
13.36	2.69
13.58	2.74
13.8	10.04
14.02	2.218
14.24	8.271
14.46	11.067
14.68	8.299
14.9	14.669
15.12	5.567
15.34	8.441
15.56	9.722
15.78	2.865
16	10.045
16.22	3.534
16.44	2.246
16.66	0.041
16.88	2.441
17.1	12.714
17.32	5.358
17.54	7.228
17.76	107.091
17.98	29.354
18.2	4.312
18.42	5.144
18.64	12.019
18.86	15.794
19.08	16.628
19.3	8.523
19.52	0.559
19.74	10.359
19.96	28.185
20.18	8.162
20.4	2.244
20.62	6.877
20.84	5.249
21.06	12.067
21.28	5.304
21.5	2.358
21.72	11.426
21.94	0.291
22.16	4.371
22.38	14.162
22.6	8.727
22.82	19.343
23.04	22.88
23.26	6.121
23.48	14.665
23.7	1.191
23.92	35.607
24.14	2.935
24.36	10.247
24.58	4.326
24.8	1.404
25.02	9.031
25.24	11.511
25.46	38.73
25.68	92.829
25.9	13.398
26.12	10.272
26.34	7.137
26.56	32.028
26.78	202.088
27	39.415
27.22	3.33
27.44	2.851
27.66	14.353
27.88	63.395
28.1	12.008
28.32	9.518
28.54	7.731
28.76	5.207
28.98	4.851
29.2	2.642
29.42	10.902
29.64	3.993
29.86	54.207
30.08	44.217
30.3	5.924
30.52	0.429
30.74	1.415
30.96	5.48
31.18	25.567
31.4	19.046
31.62	2.527
31.84	12.268
32.06	18.941
32.28	31.145
32.5	10.437
32.72	4.967
32.94	3.659
33.16	8.533
33.38	10.468
33.6	12.263
33.82	1.434
34.04	10.73
34.26	1.419
34.48	17.15
34.7	39.152
34.92	65.647
35.14	88.529
35.36	54.751
35.58	6.531
35.8	15.385
36.02	18.534
36.24	11.939
36.46	0.7
36.68	8.7
36.9	8.252
37.12	4.977
37.34	11.262
37.56	18.683
37.78	62.576
38	28.551
38.22	4.47
38.44	3.475
38.66	2.12
38.88	0.86
39.1	2.343
39.32	9.803
39.54	4.051
39.76	3.284
39.98	9.227
40.2	11.19
40.42	10.8
40.64	9.672
40.86	4.074
41.08	9.141
41.3	0.685
41.52	12.592
41.74	1.739
41.96	10.989
42.18	11.208
42.4	17.616
42.62	5.916
42.84	3.365
43.06	26.07
43.28	50.84
43.5	61.688
43.72	25.012
43.94	11.32
44.16	0.683
44.38	2.129
44.6	1.591
44.82	9.866
45.04	17.145
45.26	44.502
45.48	128.906
45.7	36.779
45.92	1.921
46.14	6.733
46.36	14.399
46.58	4.2
46.8	8.972
47.02	3.566
47.24	7.181
47.46	5.722
47.68	0.105
47.9	1.68
48.12	7.187
48.34	8.223
48.56	9.034
48.78	0.021
49	8.863
49.22	1.683
49.44	3.853
49.66	1.26
49.88	5.518
50.1	4.855
50.32	9.585
50.54	9.251
50.76	0.115
50.98	9.89
51.2	6.502
51.42	6.077
51.64	10.687
51.86	7.138
52.08	2.425
52.3	9.969
52.52	29.555
52.74	16.811
52.96	14.919
53.18	6.437
53.4	4.19
53.62	12.684
53.84	3.887
54.06	2.112
54.28	3.132
54.5	8.988
54.72	2.303
54.94	0.128
55.16	6.284
55.38	17.133
55.6	10.847
55.82	29.179
56.04	10.323
56.26	8.652
56.48	8.33
56.7	9.073
56.92	0.976
57.14	14.113
57.36	32.558
57.58	64.031
57.8	31.393
58.02	11.427
58.24	8.848
58.46	9.377
58.68	1.835
58.9	10.301
59.12	2.112
59.34	9.279
59.56	9.351
59.78	1.064
60	4.695
60.22	9.223
60.44	4.379
60.66	4.145
60.88	7
61.1	8.96
61.32	14.121
61.54	21.28
61.76	10.316
61.98	4.695
62.2	2.252
62.42	7.702
62.64	2.023
62.86	3.325
63.08	3.59
63.3	8.004
63.52	4.684
63.74	12.522
63.96	19.393
64.18	11.26
64.4	7.816
64.62	3.557
64.84	0.187
65.06	3.997
65.28	14.704
65.5	8.446
65.72	5.009
65.94	8.292
66.16	9.153
66.38	5.303
66.6	14.552
66.82	11.602
67.04	11.337
67.26	6.242
67.48	8.985
67.7	2.866
67.92	4.978
68.14	13.814
68.36	19.345
68.58	19.099
68.8	6.515
69.02	0.718
69.24	3.332
69.46	12.559
69.68	12.095
69.9	6.705
70.12	15.441
70.34	6.898
70.56	10.642
70.78	1.347
71	0.421
71.22	3.109
71.44	0.637
71.66	8.877
71.88	8.917
72.1	9.157
72.32	5.475
72.54	8.291
72.76	4.043
72.98	8.206
73.2	13.204
73.42	4.203
73.64	6.709
73.86	7.642
74.08	9.804
74.3	9.155
74.52	1.24
74.74	7.182
74.96	10.122
75.18	6.066
75.4	7.67
75.62	11.423
75.84	0.851
76.06	12.907
76.28	15.84
76.5	11.435
76.72	6.19
76.94	4.959
77.16	9.855
77.38	6.039
77.6	7.495
77.82	0.973
78.04	1.292
78.26	2.559
78.48	2.894
78.7	7.037
78.92	3.549
79.14	7.643
79.36	4.658
79.58	11.871
79.8	3.86
80.02	4.978
80.24	11.819
80.46	8.903
80.68	11.363
80.9	2.592
81.12	11.848
81.34	9.799
81.56	4.869
81.78	9.007
82	5.162
82.22	5.269
82.44	2.078
82.66	6.246
82.88	3.376
83.1	5.137
83.32	8.953
83.54	2.846
83.76	5.077
83.98	0.241
84.2	0.234
84.42	3.179
84.64	6.353
84.86	4.412
85.08	7.474
85.3	9.322
85.52	6.341
85.74	7.747
85.96	5.733
86.18	7.45
86.4	1.535
86.62	4.516
86.84	5.337
87.06	3.284
87.28	9.274
87.5	12.157
87.72	1.178
87.94	10.121
88.16	7.912
88.38	2.088
88.6	3.496
88.82	2.546
89.04	5.869
89.26	4.055
89.48	6.633
89.7	9.654
89.92	1.142
