Measurement: Powder, Xray Data XY Processed
Mineral: Trilithionite
Rruff sample: R060004
Ideal chemistry: KLi_1.5_Al_1.5_(Si_3_Al)O_10_F_2_
Locality: Mount Begbie, Revelstoke, British Columbia, Canada
Source: Bob Downs
Description: Aggregate of coarse purple crystals associated with elbaite, R060003
Diffraction sample description: Powder
Measured chemistry: (K_0.99_[box]_0.01_)(Li_0.56_Al_0.43_Mn_0.01_)_3_(Si_0.85_Al_0.15_)_4_O_10_(F_0.54_(OH)_0.46_)_2_
Cell parameters: a: 8.990(3) b: 5.185(2) c: 20.202(3) alpha: 90 beta: 99.46(1) gamma: 90 volume: 928.8(0) crystal system: monoclinic
x	intensity
5	0
5.22	14.116
5.44	7.773
5.66	20.379
5.88	15.275
6.1	7.73
6.32	7.285
6.54	3.394
6.76	4.402
6.98	10.699
7.2	0.828
7.42	14.438
7.64	4.663
7.86	3.918
8.08	7.182
8.3	0.714
8.52	10.49
8.74	13.529
8.96	203.862
9.18	10.015
9.4	8.663
9.62	4.006
9.84	8.66
10.06	7.275
10.28	4.906
10.5	2.732
10.72	0.156
10.94	6.515
11.16	3.794
11.38	4.093
11.6	3.3
11.82	8.195
12.04	10.248
12.26	3.555
12.48	4.456
12.7	3.398
12.92	6.391
13.14	7.813
13.36	4.898
13.58	10.996
13.8	6.098
14.02	8.285
14.24	3.645
14.46	2.785
14.68	4.596
14.9	3.619
15.12	4.625
15.34	4.643
15.56	8.267
15.78	2.281
16	10.323
16.22	10.171
16.44	9.001
16.66	3.49
16.88	3.365
17.1	1.873
17.32	2.076
17.54	5.091
17.76	24.93
17.98	43.042
18.2	3.956
18.42	0.097
18.64	3.093
18.86	0.004
19.08	4.95
19.3	9.058
19.52	0.025
19.74	2.8
19.96	9.509
20.18	2.394
20.4	2.305
20.62	6.117
20.84	9.919
21.06	0.898
21.28	2.867
21.5	0.948
21.72	5.92
21.94	1.008
22.16	6.044
22.38	0.205
22.6	3.68
22.82	4.809
23.04	8.603
23.26	6.37
23.48	2.168
23.7	2.955
23.92	11.551
24.14	8.4
24.36	3.23
24.58	24.921
24.8	15.255
25.02	4.035
25.24	3.712
25.46	6.602
25.68	14.37
25.9	12.166
26.12	0.048
26.34	11.163
26.56	13.12
26.78	60.846
27	100.783
27.22	13.837
27.44	6.43
27.66	2.233
27.88	16.129
28.1	10.229
28.32	9.367
28.54	6.416
28.76	11.867
28.98	29.225
29.2	49.802
29.42	5.162
29.64	3.292
29.86	1.394
30.08	4.556
30.3	8.668
30.52	3.838
30.74	6.898
30.96	25.978
31.18	19.47
31.4	10.059
31.62	11.351
31.84	1.654
32.06	1.035
32.28	21.137
32.5	2.314
32.72	4.516
32.94	0.889
33.16	2.102
33.38	7.342
33.6	12.348
33.82	6.313
34.04	6.899
34.26	2.416
34.48	0.763
34.7	19.334
34.92	52.07
35.14	34.799
35.36	13.175
35.58	1.218
35.8	3.804
36.02	13.67
36.24	13.639
36.46	4.025
36.68	7.048
36.9	12.071
37.12	8.901
37.34	1.398
37.56	11.881
37.78	2.947
38	6.272
38.22	7.603
38.44	1.981
38.66	10.458
38.88	5.523
39.1	7.686
39.32	5.02
39.54	8.165
39.76	1.091
39.98	10.17
40.2	10.243
40.42	1.731
40.64	6.307
40.86	4.151
41.08	0.768
41.3	1.538
41.52	10.194
41.74	2.997
41.96	5.826
42.18	9.42
42.4	5.824
42.62	7.432
42.84	1.886
43.06	2.565
43.28	8.354
43.5	18.019
43.72	11.09
43.94	3.222
44.16	8.979
44.38	1.867
44.6	0.047
44.82	3.131
45.04	1.481
45.26	9.918
45.48	49.294
45.7	33.569
45.92	6.993
46.14	0.231
46.36	2.708
46.58	11.16
46.8	2.702
47.02	5.126
47.24	3.396
47.46	4.443
47.68	1.18
47.9	4.258
48.12	6.415
48.34	7.536
48.56	2.595
48.78	1.551
49	0.411
49.22	4.442
49.44	3.416
49.66	7.706
49.88	8.756
50.1	6.962
50.32	0.7
50.54	1.711
50.76	6.765
50.98	0.219
51.2	2.765
51.42	5.651
51.64	5.473
51.86	4.256
52.08	8.804
52.3	0.564
52.52	14.234
52.74	3.824
52.96	3.437
53.18	1.007
53.4	6.544
53.62	1.957
53.84	4.535
54.06	15.213
54.28	2.007
54.5	4.041
54.72	0.686
54.94	6.438
55.16	1.499
55.38	5.629
55.6	4.944
55.82	5.264
56.04	1.482
56.26	14.675
56.48	4.711
56.7	2.81
56.92	3.639
57.14	10.665
57.36	4.744
57.58	3.734
57.8	12.769
58.02	9.63
58.24	7.521
58.46	13.33
58.68	10.577
58.9	9.779
59.12	0.979
59.34	2.153
59.56	5.367
59.78	1.644
60	4.711
60.22	3.69
60.44	2.609
60.66	5.257
60.88	6.566
61.1	11.355
61.32	5.31
61.54	6.188
61.76	14.115
61.98	14.24
62.2	4.417
62.42	1.729
62.64	3.141
62.86	2.395
63.08	10.841
63.3	10.145
63.52	3.681
63.74	7.052
63.96	1.26
64.18	1.431
64.4	4.426
64.62	9.386
64.84	5.257
65.06	6.089
65.28	2.913
65.5	1.604
65.72	0.426
65.94	4.02
66.16	1.218
66.38	5.582
66.6	12.733
66.82	5.883
67.04	4.638
67.26	7.494
67.48	8.426
67.7	7.575
67.92	2.515
68.14	5.281
68.36	8.268
68.58	3.333
68.8	5.432
69.02	5.053
69.24	2.556
69.46	1.542
69.68	7.595
69.9	3.56
70.12	11.651
70.34	11.679
70.56	2.793
70.78	1.762
71	6.747
71.22	6.807
71.44	0.197
71.66	6.784
71.88	0.233
72.1	4.683
72.32	2.515
72.54	3.297
72.76	5.37
72.98	14.54
73.2	11.658
73.42	0.406
73.64	4.748
73.86	8.093
74.08	4.733
74.3	5.074
74.52	2.277
74.74	7.541
74.96	2.729
75.18	3.66
75.4	1.591
75.62	1.55
75.84	5.573
76.06	4.463
76.28	4.135
76.5	4.835
76.72	5.732
76.94	6.957
77.16	0.871
77.38	2.103
77.6	2.26
77.82	10.415
78.04	5.559
78.26	5.645
78.48	2.811
78.7	3.857
78.92	0.038
79.14	4.888
79.36	4.686
79.58	8.698
79.8	6.454
80.02	2.577
80.24	0.467
80.46	4.559
80.68	7.608
80.9	2.796
81.12	3.885
81.34	6.111
81.56	8.096
81.78	4.109
82	0.893
82.22	2.152
82.44	4.915
82.66	3.889
82.88	3.726
83.1	6.646
83.32	0.485
83.54	11.634
83.76	1.592
83.98	0.752
84.2	3.874
84.42	4.22
84.64	5.232
84.86	6.468
85.08	4.477
85.3	3.477
85.52	4.462
85.74	0.314
85.96	0.032
86.18	3.85
86.4	1.68
86.62	0.475
86.84	6.477
87.06	3.474
87.28	0.316
87.5	8.612
87.72	5.712
87.94	2.851
88.16	2.976
88.38	7.204
88.6	3.399
88.82	2.425
89.04	7.429
89.26	4.692
89.48	2.513
89.7	7.574
89.92	1.617
