Measurement: Powder, Xray Data XY Processed
Mineral: Triplite
Rruff sample: R050186
Ideal chemistry: Mn^2+^_2_(PO_4_)F
Locality: Wuzhou, Guangxi Autonomous Region, China
Source: John Lucking
Description: Orangish red fragments
Diffraction sample description: Powder
Measured chemistry: (Mn^2+^_1.60_Fe^2+^_0.21_Mg_0.15_Ca_0.04_)_Σ=2_(P_1.00_O_4_)(F_0.80_(OH)_0.20_)_Σ=1_
Cell parameters: a: 13.359(2) b: 6.4938(6) c: 10.062(1) alpha: 90 beta: 119.78(1) gamma: 90 volume: 757.6(0) crystal system: monoclinic
x	intensity
5	0
5.22	9.554
5.44	2.458
5.66	14.408
5.88	15.028
6.1	1.026
6.32	12.013
6.54	13.331
6.76	18.105
6.98	34.955
7.2	32.311
7.42	6.993
7.64	17.268
7.86	23.998
8.08	11.422
8.3	21.935
8.52	18.219
8.74	17.029
8.96	7.372
9.18	8.18
9.4	9.535
9.62	5.301
9.84	30.465
10.06	0.591
10.28	3.419
10.5	14.268
10.72	7.26
10.94	13.091
11.16	27.279
11.38	5.932
11.6	14.684
11.82	16.462
12.04	4.872
12.26	19.638
12.48	0.783
12.7	0.941
12.92	8.346
13.14	25.311
13.36	22.646
13.58	10.987
13.8	4.644
14.02	1.509
14.24	7.067
14.46	26.246
14.68	15.249
14.9	7.267
15.12	16.011
15.34	8.154
15.56	0.421
15.78	0.497
16	8.89
16.22	5.917
16.44	16.788
16.66	4.813
16.88	26.21
17.1	7.695
17.32	4.053
17.55	25.852
17.77	7.858
17.99	17.642
18.21	1.823
18.43	10.807
18.65	3.075
18.87	1.854
19.09	3.327
19.31	2.297
19.53	16.632
19.75	12.655
19.97	18.475
20.19	0.791
20.41	11.108
20.63	12.987
20.85	5.656
21.07	13.592
21.29	9.352
21.51	9.765
21.73	5.925
21.95	2.882
22.17	0.064
22.39	9.172
22.61	19.841
22.83	21.33
23.05	16.24
23.27	0.883
23.49	29.317
23.71	7.171
23.93	3.588
24.15	7.328
24.37	63.261
24.59	21.092
24.81	8.607
25.03	18.342
25.25	10.563
25.47	16.417
25.69	4.087
25.91	42.102
26.13	8.56
26.35	0.195
26.57	17.644
26.79	6.527
27.01	16.349
27.23	70.129
27.45	3.374
27.67	11.665
27.89	2.836
28.11	11.115
28.33	14.539
28.55	1.613
28.77	13.352
28.99	22.35
29.21	4.319
29.43	292.305
29.65	9.717
29.87	2.913
30.09	9.998
30.31	3.545
30.53	3.559
30.75	11.065
30.97	32.662
31.19	146.976
31.41	22.756
31.63	34.75
31.85	11.291
32.07	22.676
32.29	11.82
32.51	12.988
32.73	31.505
32.95	4.642
33.17	10.566
33.39	22.771
33.61	32.495
33.83	1.577
34.05	6.833
34.27	17.215
34.49	52.401
34.71	4.486
34.93	7.591
35.15	7.531
35.37	2.558
35.59	5.863
35.81	24.098
36.03	10.239
36.25	16.096
36.47	19.174
36.69	7.294
36.91	18.608
37.13	18.413
37.35	4.099
37.57	19.689
37.79	15.617
38.01	8.722
38.23	9.671
38.45	0.783
38.67	3.19
38.89	0.06
39.11	1.356
39.33	12.46
39.55	23.753
39.77	5.53
39.99	29.58
40.21	26.184
40.43	13.483
40.65	12.107
40.87	8.395
41.09	5.369
41.31	10.913
41.53	13.928
41.75	21.227
41.97	12.37
42.19	5.111
42.41	1.764
42.63	23.805
42.85	73.082
43.07	16.556
43.29	5.492
43.51	15.68
43.73	0.578
43.95	19.597
44.17	4.663
44.39	9.085
44.61	24.04
44.83	18.343
45.05	17.404
45.27	12.841
45.49	0.806
45.71	12.287
45.93	18.068
46.15	2.77
46.37	10.96
46.59	8.464
46.81	16.039
47.03	11.361
47.25	3.166
47.47	25.644
47.69	8.718
47.91	1.205
48.13	3.218
48.35	14.122
48.57	3.127
48.79	19.034
49.01	11.574
49.23	19.937
49.45	12.766
49.67	3.352
49.89	19.401
50.11	18.712
50.33	19.479
50.55	15.523
50.77	15.796
50.99	15.766
51.21	3.871
51.43	1.188
51.65	19.078
51.87	9.585
52.09	21.884
52.31	2.107
52.53	8.829
52.75	3.175
52.97	12.49
53.19	11.643
53.41	10.241
53.63	20.222
53.85	16.835
54.07	10.447
54.29	1.59
54.51	3.358
54.73	12.233
54.95	16.532
55.17	19.776
55.39	13.206
55.61	12.306
55.83	16.865
56.05	15.061
56.27	43.778
56.49	0.28
56.71	16.92
56.93	21.777
57.15	12.015
57.37	9.341
57.59	0.109
57.81	25.052
58.03	11.648
58.25	32.638
58.47	11.263
58.69	15.975
58.91	2.332
59.13	21.304
59.35	18.648
59.57	25.502
59.79	4.473
60.01	1.277
60.23	4.75
60.45	9.641
60.67	10.228
60.89	14.891
61.11	17.339
61.33	17.395
61.55	6.112
61.77	21.655
61.99	3.901
62.21	15.675
62.43	16.921
62.65	21.826
62.87	8.292
63.09	22.975
63.31	12.79
63.53	2.534
63.75	24.172
63.97	11.672
64.19	34.796
64.41	2.978
64.63	0.781
64.85	4.13
65.07	2.444
65.29	1.104
65.51	20.183
65.73	21.85
65.95	5.073
66.17	8.436
66.39	20.512
66.61	18.25
66.83	17.375
67.05	16.419
67.27	2.147
67.49	15.932
67.71	10.206
67.93	15.999
68.15	15.936
68.37	17.795
68.59	1.381
68.81	23.581
69.03	1.48
69.25	26.471
69.47	3.603
69.69	16.939
69.91	18.357
70.13	6.116
70.35	16.434
70.57	10.714
70.79	27.052
71.01	24.5
71.23	16.38
71.45	13.422
71.67	5.593
71.89	8.171
72.11	17.514
72.33	5.734
72.55	14.566
72.77	0.99
72.99	28.695
73.21	7.403
73.43	11.4
73.65	4.953
73.87	26.014
74.09	11.331
74.31	18.155
74.53	16.495
74.75	2.138
74.97	1.807
75.19	14.217
75.41	16.444
75.63	8.661
75.85	29.257
76.07	11.602
76.29	9.92
76.51	20.342
76.73	1.243
76.95	7.686
77.17	14.827
77.39	34.739
77.61	25.302
77.83	6.507
78.05	22.464
78.27	15.353
78.49	23.576
78.71	46.803
78.93	23.689
79.15	2.817
79.37	4.035
79.59	10.956
79.81	1.145
80.03	27.597
80.25	7.357
80.47	21.352
80.69	1.104
80.91	19.585
81.13	19.219
81.35	8.217
81.57	9.527
81.79	16.141
82.01	15.934
82.23	7.52
82.45	14.478
82.67	12.351
82.89	17.862
83.11	10.804
83.33	15.458
83.55	12.977
83.77	7.817
83.99	3.081
84.21	37.877
84.43	5.908
84.65	13.07
84.87	10.563
85.09	14.55
85.31	5.056
85.53	11.934
85.75	21.758
85.97	2.846
86.19	29.186
86.41	16.853
86.63	22.205
86.85	37.464
87.07	9.44
87.29	2.55
87.51	17.587
87.73	1.362
87.95	13.002
88.17	5.314
88.39	1.693
88.61	6.943
88.83	13.718
89.05	15.78
89.27	12.695
89.49	2.021
89.71	10.496
89.93	1.895
