Measurement: Powder, Xray Data XY Processed
Mineral: Triplite
Rruff sample: R050226
Ideal chemistry: Mn^2+^_2_(PO_4_)F
Locality: Fremont County, Colorado, USA
Source: Marcus Origlieri
Description: Reddish brown massive
Diffraction sample description: Powder
Measured chemistry: (Mn^2+^_1.20_Mg_0.49_Fe^2+^_0.27_Ca_0.04_)_Σ=2_(P_1.00_O_4_)(F_0.95_(OH)_0.05_)_Σ=1_
Cell parameters: a: 12.036(2) b: 6.4646(3) c: 9.965(1) alpha: 90. beta: 106.75(1) gamma: 90. volume: 742.5(1) crystal system: monoclinic
x	intensity
5	0
5.22	25.125
5.44	25.4589
5.66	2.79216
5.88	3.87505
6.1	7.88923
6.32	12.3508
6.54	33.1768
6.76	18.2537
6.98	14.9765
7.2	14.8913
7.42	1.78613
7.64	11.3129
7.86	15.2374
8.08	17.578
8.3	8.95551
8.52	11.669
8.74	5.71911
8.96	8.76973
9.18	19.3134
9.4	7.71192
9.62	1.88233
9.84	9.88509
10.06	16.0767
10.28	8.47709
10.5	20.1431
10.72	9.94291
10.94	13.0615
11.16	27.3248
11.38	27.3089
11.6	21.9333
11.82	11.749
12.04	16.9493
12.26	8.02177
12.48	13.6923
12.7	20.0139
12.92	7.85818
13.14	8.70415
13.36	23.279
13.58	19.7559
13.8	21.609
14.02	14.3747
14.24	14.2232
14.46	8.06401
14.68	6.5825
14.9	10.3453
15.12	21.0311
15.34	21.486
15.56	17.5898
15.78	8.83874
16	12.0587
16.22	11.73
16.44	9.4343
16.66	14.591
16.88	15.8273
17.1	14.1865
17.32	14.4812
17.54	8.83167
17.76	11.6414
17.98	19.6892
18.2	12.3627
18.42	11.822
18.64	12.6671
18.86	5.83303
19.08	8.00249
19.3	9.99784
19.52	28.7238
19.74	7.42005
19.96	5.24246
20.18	15.0748
20.4	18.7743
20.62	12.6016
20.84	20.241
21.06	12.1956
21.28	26.1396
21.5	7.94217
21.72	17.3393
21.94	7.58672
22.16	7.49564
22.38	1.49393
22.6	8.65711
22.82	10.8153
23.04	17.1593
23.26	14.9621
23.48	10.6893
23.7	16.1888
23.92	3.40223
24.14	5.48922
24.36	26.9119
24.58	24.2792
24.8	27.2322
25.02	27.1311
25.24	14.127
25.46	24.7634
25.68	23.5531
25.9	26.2066
26.12	81.5119
26.34	13.6586
26.56	3.36958
26.78	5.74806
27	14.1543
27.22	13.7697
27.44	33.6777
27.66	32.7069
27.88	19.943
28.1	26.2449
28.32	6.28511
28.54	15.3579
28.76	2.67109
28.98	23.7863
29.2	10.6919
29.42	55.1462
29.64	35.464
29.86	23.0281
30.08	10.1904
30.3	14.4436
30.52	10.4698
30.74	25.7532
30.96	4.97078
31.18	68.5145
31.4	124.307
31.62	16.6541
31.84	36.6961
32.06	40.0711
32.28	26.4166
32.5	6.76527
32.72	15.7638
32.94	16.3345
33.16	10.8936
33.38	28.2944
33.6	21.9141
33.82	15.1761
34.04	4.77726
34.26	20.9002
34.48	20.1279
34.7	16.3808
34.92	25.6804
35.14	0.620354
35.36	15.1517
35.58	12.8989
35.8	49.3882
36.02	12.4483
36.24	3.89184
36.46	20.1944
36.68	5.71323
36.9	14.7861
37.12	3.67824
37.34	1.77613
37.56	13.1035
37.78	13.3229
38	15.6321
38.22	19.3005
38.44	17.372
38.66	9.05243
38.88	28.8857
39.1	7.06844
39.32	24.5397
39.54	12.7147
39.76	15.6447
39.98	3.30084
40.2	16.493
40.42	23.7746
40.64	29.3488
40.86	29.5821
41.08	25.6478
41.3	27.5971
41.52	13.582
41.74	13.7672
41.96	10.7573
42.18	28.5617
42.4	15.4642
42.62	4.88476
42.84	1.09853
43.06	43.3333
43.28	8.76608
43.5	12.7528
43.72	14.54
43.94	19.3119
44.16	15.4837
44.38	14.4884
44.6	11.6942
44.82	0.525635
45.04	19.9421
45.26	22.4158
45.48	21.5572
45.7	12.9159
45.92	37.4081
46.14	19.0678
46.36	22.1014
46.58	6.79697
46.8	30.3175
47.02	22.2028
47.24	16.2766
47.46	30.2856
47.68	24.7229
47.9	16.3605
48.12	3.84168
48.34	19.1748
48.56	8.2376
48.78	17.257
49	4.0522
49.22	11.0399
49.44	14.0075
49.66	13.8314
49.88	22.6228
50.1	18.1012
50.32	6.5919
50.54	4.51419
50.76	22.9851
50.98	2.72621
51.2	15.8527
51.42	11.2502
51.64	21.8589
51.86	26.2535
52.08	15.8963
52.3	28.0797
52.52	9.57732
52.74	15.8381
52.96	3.93482
53.18	17.9979
53.4	11.685
53.62	4.47343
53.84	12.6783
54.06	7.78369
54.28	14.7068
54.5	3.52318
54.72	15.6629
54.94	4.334
55.16	12.4736
55.38	20.0882
55.6	18.3127
55.82	8.7813
56.04	16.6406
56.26	14.8091
56.48	7.73991
56.7	24.7492
56.92	1.51502
57.14	4.09794
57.36	7.80396
57.58	0.98851
57.8	18.101
58.02	0.725578
58.24	15.4829
58.46	16.9373
58.68	10.9603
58.9	21.175
59.12	14.9545
59.34	7.68252
59.56	24.8748
59.78	34.7589
60	7.74012
60.22	10.8959
60.44	26.7366
60.66	29.3147
60.88	16.355
61.1	1.15801
61.32	24.6591
61.54	12.42
61.76	1.85626
61.98	14.8483
62.2	25.3847
62.42	36.0602
62.64	5.0379
62.86	20.424
63.08	11.8356
63.3	17.4022
63.52	14.2761
63.74	11.6239
63.96	20.1667
64.18	21.346
64.4	23.6165
64.62	10.9613
64.84	20.3586
65.06	20.1944
65.28	14.3622
65.5	18.5075
65.72	8.26968
65.94	19.7091
66.16	21.435
66.38	0.248222
66.6	15.8538
66.82	10.8635
67.04	16.5666
67.26	21.2057
67.48	3.23218
67.7	1.56773
67.92	13.0533
68.14	13.8206
68.36	16.5742
68.58	9.77366
68.8	40.0906
69.02	2.45208
69.24	23.3336
69.46	6.12636
69.68	5.3579
69.9	11.7506
70.12	31.1166
70.34	24.2564
70.56	12.1797
70.78	0.371784
71	6.06529
71.22	3.11226
71.44	13.0068
71.66	9.18266
71.88	8.93834
72.1	8.11081
72.32	10.2627
72.54	26.844
72.76	16.3607
72.98	16.1012
73.2	9.76037
73.42	15.271
73.64	6.07418
73.86	21.972
74.08	16.4064
74.3	6.66596
74.52	12.8065
74.74	21.2263
74.96	10.8492
75.18	0.85638
75.4	18.1215
75.62	23.3787
75.84	11.7144
76.06	14.946
76.28	15.87
76.5	24.143
76.72	21.9826
76.94	4.43891
77.16	15.099
77.38	32.4485
77.6	38.3606
77.82	21.4782
78.04	5.59093
78.26	10.5757
78.48	13.867
78.7	15.3564
78.92	17.0166
79.14	8.31105
79.36	6.27633
79.58	23.119
79.8	17.2049
80.02	27.0568
80.24	12.8477
80.46	16.0942
80.68	15.693
80.9	7.46891
81.12	2.63646
81.34	5.67683
81.56	5.35529
81.78	4.44626
82	6.44054
82.22	20.0859
82.44	3.43917
82.66	25.7106
82.88	5.3778
83.1	11.7399
83.32	13.3922
83.54	0.511993
83.76	21.6599
83.98	7.27653
84.2	3.80004
84.42	8.90052
84.64	21.787
84.86	11.1667
85.08	11.9067
85.3	24.743
85.52	10.2739
85.74	10.5534
85.96	7.2295
86.18	4.92458
86.4	16.2788
86.62	14.2078
86.84	28.1706
87.06	6.24069
87.28	18.8264
87.5	17.1834
87.72	14.6486
87.94	10.2777
88.16	4.82201
88.38	11.027
88.6	21.209
88.82	14.9382
89.04	3.11042
89.26	5.85052
89.48	12.6796
89.7	13.4914
89.92	9.48511
