Measurement: Powder, Xray Data XY Processed
Mineral: Trona
Rruff sample: R050499
Ideal chemistry: Na_3_(HCO_3_)(CO_3_)2H_2_O
Locality: Searles Lake, Trona, San Bernardino County, California, USA
Source: California Institute of Technology
Description: Gray columnar massive
Diffraction sample description: Powder
Measured chemistry: Na_3.00_(CO_3_)(HCO_3_)Â·2H_2_O ; CO_3_ and HCO_3_ were estimated by stoichiometry
Cell parameters: a: 20.4190(6) b: 3.4927(1) c: 10.3314(8) alpha: 90. beta: 106.424(5) gamma: 90. volume: 706.75(5) crystal system: monoclinic
x	intensity
5	0
5.22	10.4841
5.44	9.63476
5.66	21.2366
5.88	1.24968
6.1	14.7061
6.32	6.40365
6.54	9.84039
6.76	1.35615
6.98	10.6569
7.2	11.4355
7.42	5.4705
7.64	9.38148
7.86	6.86733
8.08	6.40771
8.3	8.90441
8.52	3.43248
8.74	10.7127
8.96	76.222
9.18	96.8083
9.4	13.2953
9.62	18.2339
9.84	9.632
10.06	9.35196
10.28	3.73133
10.5	6.05598
10.72	0.682072
10.94	6.00415
11.16	6.32378
11.38	5.68043
11.6	8.94831
11.82	2.15632
12.04	5.17229
12.26	7.46973
12.48	8.73006
12.7	6.12704
12.92	9.38511
13.14	8.37305
13.36	4.68617
13.58	10.8423
13.8	7.92235
14.02	5.92506
14.24	2.4027
14.46	9.46643
14.68	3.54436
14.9	13.3184
15.12	7.5163
15.34	1.62462
15.56	2.97505
15.78	4.02806
16	4.40659
16.22	6.58177
16.44	12.8552
16.66	1.50493
16.88	4.19504
17.1	6.05138
17.32	2.73542
17.54	3.66069
17.76	9.39861
17.98	50.97
18.2	568.586
18.42	12.2992
18.64	6.19659
18.86	1.15439
19.08	10.3765
19.3	1.58413
19.52	3.07615
19.74	0.660422
19.96	3.42693
20.18	4.69537
20.4	3.77162
20.62	8.85189
20.84	6.1363
21.06	8.17846
21.28	6.02384
21.5	6.8446
21.72	10.7305
21.94	4.615
22.16	5.00518
22.38	61.8784
22.6	5.97146
22.82	5.98814
23.04	5.02349
23.26	8.83186
23.48	5.79646
23.7	12.8097
23.92	1.78457
24.14	11.6732
24.36	1.51458
24.58	1.93916
24.8	6.80965
25.02	3.59666
25.24	9.6519
25.46	8.70694
25.68	1.67172
25.9	18.8064
26.12	7.34505
26.34	8.86976
26.56	1.63586
26.78	1.73162
27	1.08579
27.22	1.416
27.44	34.054
27.66	5.31609
27.88	141.288
28.1	25.8298
28.32	19.9834
28.54	5.82589
28.76	1.90476
28.98	89.4177
29.2	295.81
29.42	21.1607
29.64	6.52614
29.86	2.60355
30.08	5.26236
30.3	1.83254
30.52	13.3591
30.74	6.85811
30.96	3.5554
31.18	8.27465
31.4	3.61739
31.62	7.11519
31.84	0.913674
32.06	7.3098
32.28	29.8917
32.5	130.275
32.72	9.37478
32.94	1.53202
33.16	5.71885
33.38	2.48528
33.6	2.2417
33.82	230.106
34.04	222.797
34.26	16.1483
34.48	12.49
34.7	32.3898
34.92	8.06484
35.14	9.38657
35.36	1.37869
35.58	4.3574
35.8	187.317
36.02	18.4189
36.24	12.4205
36.46	23.5981
36.68	59.7689
36.9	197.429
37.12	75.2157
37.34	40.8097
37.56	6.54622
37.78	7.21514
38	4.05516
38.22	7.05486
38.44	1.58988
38.66	0.051234
38.88	16.0765
39.1	5.54918
39.32	14.3909
39.54	1.47894
39.76	4.53667
39.98	235.324
40.2	36.1927
40.42	0.55686
40.64	6.4247
40.86	10.5246
41.08	6.45644
41.3	16.8159
41.52	15.9197
41.74	5.8606
41.96	13.6699
42.18	30.7277
42.4	3.95124
42.62	4.59621
42.84	14.1947
43.06	6.71649
43.28	0.031679
43.5	2.57683
43.72	8.58314
43.94	6.18403
44.16	33.5541
44.38	113.078
44.6	63.4578
44.82	137.304
45.04	1.35742
45.26	18.8106
45.48	64.0507
45.7	14.4847
45.92	4.8646
46.14	19.7912
46.36	87.9515
46.58	8.03911
46.8	7.45006
47.02	3.60706
47.24	2.45286
47.46	6.47105
47.68	0.986309
47.9	19.8826
48.12	8.86042
48.34	63.69
48.56	19.5454
48.78	11.5785
49	10.6448
49.22	4.69615
49.44	12.876
49.66	5.07162
49.88	5.51295
50.1	8.00633
50.32	8.43637
50.54	16.2532
50.76	8.06395
50.98	0.895322
51.2	11.6963
51.42	74.3001
51.64	6.97004
51.86	7.89077
52.08	9.05479
52.3	21.0968
52.52	120
52.74	32.1315
52.96	1.45031
53.18	5.75382
53.4	19.375
53.62	7.20118
53.84	0.802062
54.06	1.03718
54.28	10.4245
54.5	13.685
54.72	17.6001
54.94	8.62388
55.16	14.6814
55.38	132.099
55.6	29.1377
55.82	33.0438
56.04	9.07295
56.26	5.66558
56.48	9.22215
56.7	3.80791
56.92	1.31684
57.14	10.6972
57.36	10.1382
57.58	21.1553
57.8	41.685
58.02	22.9912
58.24	28.781
58.46	7.26294
58.68	0.950643
58.9	3.10599
59.12	1.11654
59.34	11.3051
59.56	19.5455
59.78	5.77393
60	1.95097
60.22	7.96605
60.44	1.17169
60.66	2.70768
60.88	6.985
61.1	21.1911
61.32	4.40572
61.54	3.65346
61.76	2.80391
61.98	4.58279
62.2	13.738
62.42	4.86987
62.64	10.1308
62.86	2.01924
63.08	13.1933
63.3	14.279
63.52	4.28663
63.74	4.18194
63.96	2.07609
64.18	10.8228
64.4	7.55276
64.62	5.20422
64.84	1.6941
65.06	8.27431
65.28	5.77389
65.5	8.16034
65.72	6.8518
65.94	3.75195
66.16	8.83505
66.38	13.2193
66.6	3.79319
66.82	17.9679
67.04	17.4427
67.26	7.61459
67.48	0.110362
67.7	8.1247
67.92	9.44189
68.14	9.66318
68.36	11.8523
68.58	7.83736
68.8	1.94732
69.02	3.78936
69.24	20.4156
69.46	4.42262
69.68	7.57212
69.9	1.70765
70.12	1.85144
70.34	9.76941
70.56	13.0918
70.78	31.283
71	15.0966
71.22	7.28904
71.44	8.31611
71.66	3.92018
71.88	7.88427
72.1	8.18615
72.32	9.49401
72.54	13.6153
72.76	4.6847
72.98	0.475856
73.2	2.59157
73.42	1.82043
73.64	8.0951
73.86	4.09867
74.08	5.3556
74.3	9.48616
74.52	0.181864
74.74	16.7903
74.96	3.8758
75.18	6.92748
75.4	4.98195
75.62	7.01888
75.84	10.5268
76.06	7.63705
76.28	0.694616
76.5	0.306019
76.72	7.75851
76.94	9.04088
77.16	6.11744
77.38	0.302052
77.6	1.37712
77.82	2.30671
78.04	9.2564
78.26	7.81481
78.48	6.53006
78.7	0.542948
78.92	11.3366
79.14	9.14891
79.36	5.32425
79.58	3.33444
79.8	6.31294
80.02	2.63652
80.24	0.283587
80.46	1.71014
80.68	4.80664
80.9	7.01489
81.12	3.05021
81.34	5.17886
81.56	7.10427
81.78	4.26197
82	10.244
82.22	6.29344
82.44	10.227
82.66	5.32901
82.88	4.48698
83.1	0.58265
83.32	5.63297
83.54	14.8093
83.76	9.89428
83.98	5.11996
84.2	5.76477
84.42	2.06816
84.64	3.78847
84.86	2.6063
85.08	4.47203
85.3	8.26507
85.52	3.2016
85.74	7.26748
85.96	11.9761
86.18	9.68624
86.4	0.571654
86.62	1.23461
86.84	4.00438
87.06	8.88601
87.28	10.8907
87.5	0.93999
87.72	19.1088
87.94	11.85
88.16	6.75275
88.38	5.81291
88.6	1.99711
88.82	6.78656
89.04	4.94254
89.26	6.07919
89.48	0.79243
89.7	5.93494
89.92	5.92577
