Measurement: Powder, Xray Data XY Processed
Mineral: Tsumgallite
Rruff sample: R100125
Ideal chemistry: GaOOH
Locality: Tsumeb, Namibia
Source: William W. Pinch
Description: Pale green platy crystals, associated with galena and tennantite
Diffraction sample description: Powder, using Mo radiation
Cell parameters: a: 4.5122(8) b: 9.784(2) c: 2.9701(5) alpha: 90 beta: 90 gamma: 90 volume: 131.12(3) crystal system: orthorhombic
x	intensity
8.31	0
8.41	15.3369
8.51	16.1396
8.61	4.03735
8.71	37.1127
8.81	5.3678
8.91	34.0196
9.01	17.1566
9.11	47.7699
9.21	16.281
9.31	56.8143
9.41	66.2572
9.51	62.1365
9.61	81.5223
9.71	248.987
9.81	369.676
9.91	193.793
10.01	90.1155
10.11	66.2224
10.21	42.3635
10.31	59.9025
10.41	68.7675
10.51	29.6156
10.61	31.5697
10.71	69.9348
10.81	43.7451
10.91	75.64
11.01	38.2035
11.11	70.7898
11.21	43.9136
11.31	64.2465
11.41	42.7496
11.51	65.5657
11.61	64.2993
11.71	59.096
11.81	20.4406
11.91	45.0582
12.01	97.3641
12.11	96.8394
12.21	108.218
12.31	71.0796
12.41	63.8749
12.51	44.5088
12.61	61.1801
12.71	3.88184
12.81	47.407
12.91	14.9603
13.01	9.06128
13.11	23.8579
13.21	11.9352
13.31	21.6788
13.41	42.3037
13.51	33.46
13.61	42.4525
13.71	10.108
13.81	15.7828
13.91	15.3099
14.01	12.1406
14.11	38.5818
14.21	18.8308
14.31	7.72436
14.41	2.83679
14.51	25.6243
14.61	25.03
14.71	15.4
14.81	37.3101
14.91	60.8418
15.01	32.499
15.11	31.8306
15.21	130.459
15.31	196.727
15.41	115.518
15.51	20.3452
15.61	2.28809
15.71	28.362
15.81	207.289
15.91	353.209
16.01	317.787
16.11	138.246
16.21	149.978
16.31	235.144
16.41	251.167
16.51	263.589
16.61	392.711
16.71	1044
16.81	2040.33
16.91	1945.57
17.01	831.275
17.11	172.177
17.21	51.0926
17.31	52.0889
17.41	0.518555
17.51	27.4924
17.61	2.05408
17.71	8.46112
17.81	19.0442
17.91	1.84479
18.01	30.7972
18.11	24.2496
18.21	95.9493
18.31	144.383
18.41	133.408
18.51	61.1293
18.61	36.6428
18.71	64.1579
18.81	76.0933
18.91	83.1669
19.01	70.4371
19.11	33.7678
19.21	4.43341
19.31	2.06995
19.41	14.3998
19.51	11.8159
19.61	3.53967
19.71	1.66125
19.81	25.9588
19.91	32.8157
20.01	3.41907
20.11	31.2628
20.21	6.34936
20.31	41.5894
20.41	51.4746
20.51	96.7361
20.61	115.927
20.71	89.4685
20.81	49.519
20.91	28.1093
21.01	44.2125
21.11	20.9545
21.21	38.5559
21.31	24.7298
21.41	55.0659
21.51	69.9999
21.61	76.1442
21.71	39.705
21.81	28.827
21.91	9.53339
22.01	12.5991
22.11	18.0594
22.21	4.67499
22.31	3.59088
22.41	24.9113
22.51	7.05212
22.61	10.2119
22.71	0.610596
22.81	42.791
22.91	96.5811
23.01	164.287
23.11	138.935
23.21	87.4559
23.31	73.0389
23.41	48.8117
23.51	32.445
23.61	33.112
23.71	13.3796
23.81	44.4188
23.91	83.8919
24.01	240.73
24.11	425.053
24.21	394.384
24.31	281.464
24.41	147.744
24.51	90.6542
24.61	67.134
24.71	78.9913
24.81	56.6358
24.91	40.4283
25.01	20.8198
25.11	43.2064
25.21	28.8231
25.31	21.2946
25.41	2.75885
25.51	3.00549
25.61	7.61188
25.71	27.3903
25.81	37.8569
25.91	63.5987
26.01	54.0824
26.11	34.0042
26.21	12.4973
26.31	36.954
26.41	106.353
26.51	205.694
26.61	230.735
26.71	178.203
26.81	73.7195
26.91	48.2969
27.01	16.5159
27.11	9.52844
27.21	18.0291
27.31	51.8115
27.41	157.374
27.51	217.817
27.61	176.214
27.71	116.696
27.81	45.5269
27.91	18.4407
28.01	10.6114
28.11	5.68823
28.21	12.8148
28.31	13.8509
28.41	28.6642
28.51	60.7382
28.61	79.5588
28.71	42.4918
28.81	27.0823
28.91	33.7635
29.01	10.9266
29.11	41.1449
29.21	72.0492
29.31	109.267
29.41	73.6193
29.51	38.4926
29.61	9.75513
29.71	2.41565
29.81	6.59051
29.91	12.0494
30.01	0.321716
30.11	14.0994
30.21	27.6995
30.31	31.4276
30.41	44.1696
30.51	54.4571
30.61	61.8104
30.71	65.889
30.81	77.7618
30.91	61.8394
31.01	32.1502
31.11	19.827
31.21	19.2934
31.31	5.22919
31.41	35.3035
31.51	55.6808
31.61	120.439
31.71	136.407
31.81	114.346
31.91	63.7991
32.01	21.0145
32.11	25.5298
32.21	37.8392
32.31	30.639
32.41	32.6191
32.51	12.3334
32.61	0.052368
32.71	11.215
32.81	10.7672
32.91	40.102
33.01	61.3503
33.11	61.4849
33.21	64.7976
33.31	64.1434
33.41	47.0743
33.51	58.2035
33.61	52.1467
33.71	47.891
33.81	44.4667
33.91	32.5612
34.01	43.5265
34.11	46.6561
34.21	34.7631
34.31	42.1273
34.41	25.3373
34.51	7.47052
34.61	28.3835
34.71	35.3583
34.81	43.3002
34.91	37.6658
35.01	35.8222
35.11	36.6829
35.21	39.5902
35.31	20.3302
35.41	19.5774
35.51	44.1457
35.61	31.8493
35.71	16.3412
35.81	22.4625
35.91	24.5287
36.01	2.13336
36.11	7.82483
36.21	5.23395
36.31	7.14667
36.41	42.4955
36.51	34.9866
36.61	36.501
36.71	32.7462
36.81	30.7024
36.91	21.653
37.01	48.2523
37.11	91.5415
37.21	91.0896
37.31	65.3376
37.41	97.7039
37.51	60.3854
37.61	31.8062
37.71	17.2514
37.81	8.30029
37.91	12.8773
38.01	10.6357
38.11	24.8639
38.21	5.89438
38.31	0.07608
38.41	6.65475
38.51	27.4232
38.61	43.6334
38.71	26.42
38.81	23.5915
38.91	6.38559
39.01	29.5564
39.11	16.4062
39.21	26.3805
39.31	48.7538
39.41	71.767
39.51	63.7434
39.61	57.7316
39.71	41.7716
39.81	62.234
39.91	87.1636
40.01	79.0228
40.11	74.1442
40.21	91.1312
40.31	59.6942
40.41	25.607
40.51	34.3367
40.61	10.8884
40.71	6.59305
40.81	11.9386
40.91	21.6233
41.01	61.2935
41.11	97.1543
41.21	97.0959
41.31	51.3363
41.41	65.3369
41.51	60.7317
41.61	42.9581
41.71	52.6121
41.81	60.6401
41.91	32.9352
42.01	58.5907
42.11	46.625
42.21	55.8091
42.31	30.6124
42.41	25.2713
42.51	6.71823
42.61	37.3918
42.71	12.8738
42.81	25.3088
42.91	27.4199
43.01	69.2601
43.11	59.2426
43.21	59.3618
43.31	36.0608
43.41	25.5598
43.51	1.05145
43.61	15.3226
43.71	20.4979
43.81	18.1432
43.91	26.2256
44.01	16.7806
44.11	28.821
44.21	33.1816
44.31	10.5932
44.41	5.13242
44.51	18.1116
44.61	25.9276
44.71	18.4857
44.81	10.9984
44.91	21.0524
45.01	12.4472
45.11	10.4056
45.21	22.1357
45.31	1.34241
45.41	10.4481
45.51	13.3696
45.61	3.77139
45.71	0.438721
45.81	13.5301
45.91	22.5017
