Measurement: Powder, Xray Data XY Processed
Mineral: Tugarinovite
Rruff sample: R100218
Ideal chemistry: Mo^4+^O_2_
Locality: Mining concentrate
Source: Mike Carducci, Climax Molybdenum Technology Center
Description: Black unconsolidated powder, representing a mixture with a Mo-oxide.
Diffraction sample description: Powder
Cell parameters: a: 5.6073(2) b: 4.8562(1) c: 5.6252(2) alpha: 90 beta: 120.934(2) gamma: 90 volume: 131.388(5) crystal system: monoclinic
x	intensity
5	0
5.22	29.9446
5.44	44.7895
5.66	45.2648
5.88	54.7347
6.1	25.9649
6.32	2.62315
6.54	10.4116
6.76	4.4553
6.98	38.2947
7.2	62.0106
7.42	21.1505
7.64	17.036
7.86	25.2945
8.08	20.8897
8.3	21.5525
8.52	20.3878
8.74	22.7588
8.96	10.5961
9.18	3.4074
9.4	21.5868
9.62	33.656
9.84	21.7934
10.06	15.7733
10.28	14.5359
10.5	12.4467
10.72	14.1464
10.94	4.85058
11.16	24.9314
11.38	26.3882
11.6	7.5837
11.82	19.634
12.04	6.39658
12.26	18.5933
12.48	3.50268
12.7	0.813091
12.92	0.275425
13.14	7.637
13.36	5.01786
13.58	10.6565
13.8	17.7647
14.02	0.933731
14.24	6.5818
14.46	15.1905
14.68	0.883411
14.9	21.9681
15.12	10.5838
15.34	20.1394
15.56	3.05031
15.78	11.9824
16	24.739
16.22	19.7915
16.44	10.6768
16.66	28.0249
16.88	0.357784
17.1	0.183357
17.32	2.90901
17.54	14.1331
17.76	5.99045
17.98	2.4351
18.2	4.57785
18.42	145.698
18.64	11.4678
18.86	6.9496
19.08	0.505491
19.3	33.7057
19.52	64.5679
19.74	13.2487
19.96	9.82564
20.18	6.66441
20.4	5.67787
20.62	8.9095
20.84	74.3295
21.06	5.9864
21.28	11.8637
21.5	24.8727
21.72	17.8512
21.94	8.37523
22.16	232.044
22.38	380.437
22.6	9.43976
22.82	7.0477
23.04	9.70597
23.26	25.844
23.48	63.3655
23.7	21.0706
23.92	18.4741
24.14	4.86247
24.36	8.69807
24.58	3.79865
24.8	9.60615
25.02	10.2214
25.24	36.0731
25.46	422.697
25.68	169.269
25.9	2028.73
26.12	224.774
26.34	30.868
26.56	24.9399
26.78	3.96909
27	7.54028
27.22	41.8108
27.44	5.74376
27.66	3.53692
27.88	3.86934
28.1	5.84209
28.32	8.25138
28.54	26.2191
28.76	8.94066
28.98	9.03679
29.2	32.5871
29.42	5.33162
29.64	24.0642
29.86	4.33077
30.08	10.0473
30.3	6.21588
30.52	12.8564
30.74	0.01322
30.96	10.0664
31.18	4.59765
31.4	8.61686
31.62	7.12808
31.84	63.0086
32.06	39.6961
32.28	13.6621
32.5	6.40206
32.72	65.4464
32.94	35.1476
33.16	18.6901
33.38	7.9409
33.6	177.676
33.82	11.4031
34.04	8.58684
34.26	19.201
34.48	36.6078
34.7	10.0217
34.92	8.82967
35.14	1.29217
35.36	36.5585
35.58	16.3337
35.8	13.4604
36.02	11.8325
36.24	7.47574
36.46	24.308
36.68	1282.7
36.9	1987.79
37.12	382.329
37.34	1078.05
37.56	66.3144
37.78	9.08883
38	26.397
38.22	2.8988
38.44	7.52061
38.66	10.5018
38.88	9.26262
39.1	1.57115
39.32	5.42192
39.54	11.0024
39.76	21.1638
39.98	1.25711
40.2	26.3055
40.42	30.4208
40.64	2.97745
40.86	10.45
41.08	18.688
41.3	163.417
41.52	63.3856
41.74	64.4703
41.96	122.269
42.18	2.39298
42.4	4.08485
42.62	15.8259
42.84	13.2828
43.06	2.84785
43.28	9.67718
43.5	13.2878
43.72	7.33504
43.94	12.7061
44.16	6.0595
44.38	12.2118
44.6	3.41535
44.82	11.4144
45.04	11.3874
45.26	9.71472
45.48	7.47724
45.7	54.7161
45.92	0.753214
46.14	15.5772
46.36	18.9172
46.58	56.265
46.8	1.20926
47.02	4.15746
47.24	5.92402
47.46	18.4478
47.68	14.452
47.9	25.0352
48.12	7.05282
48.34	36.5316
48.56	5.10938
48.78	6.52785
49	11.1219
49.22	15.9731
49.44	220.789
49.66	63.5397
49.88	28.4109
50.1	10.8767
50.32	12.4779
50.54	10.8427
50.76	0.706865
50.98	30.4563
51.2	1.44263
51.42	2.46533
51.64	9.04576
51.86	4.10534
52.08	3.81047
52.3	9.3851
52.52	18.4222
52.74	44.535
52.96	593.62
53.18	518.801
53.4	825.039
53.62	682.183
53.84	363.824
54.06	542.515
54.28	14.1066
54.5	2.50236
54.72	3.3096
54.94	2.3038
55.16	2.93913
55.38	13.0246
55.6	30.1414
55.82	20.0673
56.04	18.4364
56.26	5.47664
56.48	17.9016
56.7	1.62845
56.92	24.0519
57.14	3.87245
57.36	76.9297
57.58	14.5993
57.8	6.93343
58.02	43.934
58.24	27.6119
58.46	11.4091
58.68	13.8919
58.9	10.1964
59.12	7.78483
59.34	10.5183
59.56	20.3413
59.78	257.889
60	65.9265
60.22	317.78
60.44	110.284
60.66	129.048
60.88	23.9192
61.1	2.01815
61.32	14.6788
61.54	13.4989
61.76	6.68633
61.98	8.97855
62.2	5.75571
62.42	0.197216
62.64	0.766909
62.86	0.406073
63.08	19.684
63.3	134.6
63.52	38.4123
63.74	8.23168
63.96	4.35315
64.18	9.3039
64.4	8.5151
64.62	5.27506
64.84	2.87783
65.06	9.14966
65.28	11.4037
65.5	0.298428
65.72	14.8863
65.94	0.01368
66.16	21.6431
66.38	168.265
66.6	863.539
66.82	286.407
67.04	13.6502
67.26	15.1406
67.48	45.811
67.7	47.3728
67.92	1.67456
68.14	0.949854
68.36	3.60449
68.58	4.09128
68.8	12.1692
69.02	8.25552
69.24	84.3917
69.46	51.1625
69.68	18.9701
69.9	47.8281
70.12	11.536
70.34	24.0878
70.56	12.355
70.78	10.2578
71	3.3644
71.22	7.89598
71.44	4.02121
71.66	4.0095
71.88	12.8632
72.1	11.7107
72.32	42.4835
72.54	45.6945
72.76	9.86172
72.98	21.0495
73.2	310.738
73.42	123.294
73.64	16.8869
73.86	15.488
74.08	6.64856
74.3	5.395
74.52	5.18369
74.74	11.7126
74.96	2.45805
75.18	3.18292
75.4	15.4622
75.62	16.5215
75.84	5.31294
76.06	7.43583
76.28	3.99108
76.5	6.91641
76.72	5.01809
76.94	5.10404
77.16	4.92791
77.38	11.6505
77.6	6.62476
77.82	1.2598
78.04	8.94644
78.26	11.8293
78.48	256.783
78.7	331.373
78.92	126.187
79.14	48.5572
79.36	88.2452
79.58	247.305
79.8	67.9006
80.02	13.8602
80.24	7.03865
80.46	3.73491
80.68	0.768225
80.9	11.001
81.12	47.6477
81.34	25.5221
81.56	33.7457
81.78	40.6298
82	34.9783
82.22	19.8356
82.44	7.62236
82.66	15.1195
82.88	5.56282
83.1	2.60163
83.32	2.7365
83.54	3.8178
83.76	5.53309
83.98	5.49728
84.2	73.1431
84.42	20.7616
84.64	26.1743
84.86	197.499
85.08	44.7752
85.3	12.4497
85.52	3.48584
85.74	5.3529
85.96	1.60543
86.18	2.29951
86.4	10.0744
86.62	4.81422
86.84	5.33924
87.06	10.9911
87.28	9.59958
87.5	9.5302
87.72	25.3049
87.94	32.2049
88.16	11.1832
88.38	13.0744
88.6	11.0443
88.82	5.00612
89.04	13.4109
89.26	1.13614
89.48	5.82952
89.7	77.2456
89.92	1.75237
