Measurement: Powder, Xray Data XY Processed
Mineral: Tugtupite
Rruff sample: R050278
Ideal chemistry: Na_4_BeAlSi_4_O_12_Cl
Locality: Kvanefjeld, Ilimaussag, Greenland
Source: Marcus Origlieri
Description: Pink fine-grained aggregate associated with albite
Diffraction sample description: Powder, intimately mixed with albite
Measured chemistry: Na_4.00_Be_1.00_Al_1.00_Si_4.00_O_12_Cl_1.00_ ; Be not measured but estimated by charge balance
Cell parameters: a: 8.6391(2) b: 8.6391(2) c: 8.8704(3) alpha: 90 beta: 90 gamma: 90 volume: 662.04(3) crystal system: tetragonal
x	intensity
5	0
5.22	1.2651
5.44	7.12867
5.66	1.46343
5.88	5.813
6.1	1.86844
6.32	10.2693
6.54	20.3523
6.76	7.50162
6.98	3.64891
7.2	3.68729
7.42	8.25615
7.64	8.41553
7.86	7.25208
8.08	2.08669
8.3	11.5374
8.52	4.55474
8.74	9.08281
8.96	4.51964
9.18	7.01818
9.4	2.13376
9.62	11.4038
9.84	5.22497
10.06	1.49007
10.28	10.4472
10.5	3.55214
10.72	3.63504
10.94	12.9012
11.16	1.27871
11.38	11.1561
11.6	2.10622
11.82	0.145537
12.04	4.78036
12.26	4.03868
12.48	9.83039
12.7	10.8011
12.92	6.3115
13.14	3.09281
13.36	0.542927
13.58	7.0031
13.8	11.2095
14.02	10.9813
14.24	67.1916
14.46	39.9998
14.68	13.6403
14.9	16.572
15.12	1.59984
15.34	6.88941
15.56	2.23412
15.78	21.6505
16	12.1725
16.22	2.21205
16.44	0.436448
16.66	5.48564
16.88	10.028
17.1	4.40388
17.32	3.65361
17.54	11.7862
17.76	5.81707
17.98	6.74508
18.2	4.36459
18.42	17.686
18.64	10.5403
18.86	14.5119
19.08	10.504
19.3	2.77031
19.52	5.98775
19.74	6.08318
19.96	20.8776
20.18	15.0831
20.4	6.21641
20.62	24.5599
20.84	0.869528
21.06	2.65387
21.28	1.44271
21.5	0.809664
21.72	0.743118
21.94	4.42263
22.16	89.2674
22.38	13.1671
22.6	5.76703
22.82	1.73389
23.04	6.95121
23.26	5.3437
23.48	10.7165
23.7	4.95623
23.92	7.09954
24.14	38.5363
24.36	65.4145
24.58	6.25981
24.8	498.409
25.02	54.0564
25.24	640.462
25.46	15.8268
25.68	5.50233
25.9	2.97854
26.12	48.2218
26.34	4.9431
26.56	1.60814
26.78	5.25967
27	9.8255
27.22	4.3199
27.44	6.95801
27.66	7.04644
27.88	64.7995
28.1	57.9387
28.32	61.8549
28.54	1.5622
28.76	3.23914
28.98	2.21613
29.2	17.7778
29.42	12.7813
29.64	9.7928
29.86	6.70658
30.08	12.2066
30.3	13.923
30.52	43.0157
30.74	10.0856
30.96	6.71036
31.18	5.59574
31.4	14.0263
31.62	8.30751
31.84	2.70688
32.06	39.0129
32.28	15.186
32.5	6.82256
32.72	52.7165
32.94	2.68274
33.16	7.07964
33.38	8.65866
33.6	4.9608
33.82	0.094666
34.04	5.21598
34.26	10.3021
34.48	4.43263
34.7	4.40382
34.92	0.794158
35.14	19.0937
35.36	8.31529
35.58	22.3717
35.8	138.492
36.02	2.32699
36.24	8.19169
36.46	10.6864
36.68	4.6566
36.9	2.32384
37.12	8.62444
37.34	4.58373
37.56	2.2383
37.78	17.823
38	1.58867
38.22	15.7752
38.44	75.8955
38.66	23.2644
38.88	38.9528
39.1	13.1999
39.32	5.46436
39.54	4.74026
39.76	0.010714
39.98	9.80773
40.2	9.17154
40.42	0.315844
40.64	12.5257
40.86	7.50014
41.08	8.28084
41.3	10.2297
41.52	6.94374
41.74	0.262611
41.96	1.1953
42.18	5.8711
42.4	7.74391
42.62	5.32628
42.84	12.6778
43.06	15.1113
43.28	15.696
43.5	56.3058
43.72	10.1528
43.94	52.1466
44.16	0.126163
44.38	49.8
44.6	56.1116
44.82	10.3468
45.04	1.39525
45.26	1.9239
45.48	17.0864
45.7	8.37199
45.92	13.6013
46.14	10.6625
46.36	6.92896
46.58	3.01359
46.8	33.6076
47.02	29.331
47.24	7.18014
47.46	2.1416
47.68	0.18406
47.9	0.066978
48.12	5.81034
48.34	10.8553
48.56	0.050343
48.78	6.66244
49	20.3429
49.22	16.6173
49.44	5.79126
49.66	3.9413
49.88	19.9499
50.1	11.1097
50.32	3.06208
50.54	4.2476
50.76	13.0125
50.98	10.1834
51.2	19.4834
51.42	2.76002
51.64	12.5977
51.86	0.986562
52.08	4.32183
52.3	5.29671
52.52	4.27982
52.74	7.78874
52.96	3.80289
53.18	21.1245
53.4	12.8838
53.62	34.2573
53.84	0.538939
54.06	39.6393
54.28	6.88766
54.5	2.91028
54.72	7.35295
54.94	16.2835
55.16	8.38723
55.38	0.661777
55.6	3.10884
55.82	0.340068
56.04	2.87201
56.26	6.024
56.48	1.25713
56.7	1.13253
56.92	7.98185
57.14	22.7099
57.36	4.91069
57.58	1.68342
57.8	3.75767
58.02	1.32422
58.24	10.5785
58.46	33.3695
58.68	73.2291
58.9	10.8449
59.12	6.8662
59.34	5.50794
59.56	6.58365
59.78	92.5333
60	13.9069
60.22	2.46587
60.44	16.6617
60.66	16.8372
60.88	4.81955
61.1	0.19366
61.32	10.7245
61.54	16.5918
61.76	3.36187
61.98	8.5112
62.2	28.5497
62.42	22.1122
62.64	8.18517
62.86	5.55543
63.08	7.73875
63.3	7.74813
63.52	5.62132
63.74	8.5227
63.96	22.5802
64.18	11.6973
64.4	12.312
64.62	1.15752
64.84	5.14767
65.06	10.006
65.28	7.97253
65.5	18.476
65.72	11.5047
65.94	9.02595
66.16	8.10411
66.38	13.3515
66.6	16.0159
66.82	1.55159
67.04	4.97066
67.26	6.31093
67.48	0.625407
67.7	7.80394
67.92	7.8754
68.14	3.84133
68.36	5.43795
68.58	7.32939
68.8	2.07193
69.02	3.32738
69.24	11.6154
69.46	12.2618
69.68	0.014334
69.9	2.13231
70.12	2.39072
70.34	0.775886
70.56	10.029
70.78	15.7066
71	4.1566
71.22	9.45672
71.44	3.74503
71.66	4.429
71.88	8.79344
72.1	4.03617
72.32	19.0415
72.54	16.1351
72.76	9.99569
72.98	1.85573
73.2	6.48867
73.42	4.27097
73.64	2.24102
73.86	11.4546
74.08	13.5058
74.3	5.23522
74.52	0.274635
74.74	8.25439
74.96	1.16301
75.18	5.52544
75.4	13.648
75.62	11.9659
75.84	13.1718
76.06	7.2721
76.28	0.01525
76.5	3.92034
76.72	2.05036
76.94	7.87425
77.16	0.806046
77.38	1.6668
77.6	2.50031
77.82	5.68172
78.04	2.58761
78.26	13.5101
78.48	2.35879
78.7	1.44307
78.92	8.40277
79.14	2.33262
79.36	4.30976
79.58	41.2145
79.8	17.2628
80.02	14.083
80.24	8.85765
80.46	5.6296
80.68	4.4637
80.9	7.37945
81.12	5.30474
81.34	1.53974
81.56	6.71026
81.78	12.8483
82	15.075
82.22	6.23402
82.44	5.3824
82.66	4.40652
82.88	9.05564
83.1	8.4107
83.32	6.63696
83.54	15.8977
83.76	1.08626
83.98	7.11453
84.2	0.271049
84.42	7.33497
84.64	6.35917
84.86	5.43057
85.08	3.61561
85.3	2.55139
85.52	6.56953
85.74	9.61405
85.96	7.67686
86.18	4.5381
86.4	1.59285
86.62	11.5592
86.84	2.60369
87.06	0.883299
87.28	12.0156
87.5	11.0347
87.72	3.02267
87.94	9.9898
88.16	6.0425
88.38	9.96944
88.6	8.02304
88.82	2.00305
89.04	14.1799
89.26	7.8143
89.48	5.34038
89.7	5.23929
89.92	1.72959
