Measurement: Powder, Xray Data XY Processed
Mineral: Tunellite
Rruff sample: R070755
Ideal chemistry: SrB_6_O_9_(OH)_2_3H_2_O
Locality: Jennifer mine, U.S. Borax Mine, Boron, Kramer District, Kern County, California, USA
Source: Michael Scott
Description: Colorless rhombohedron with defined cleavage
Diffraction sample description: Powder, cell parameters are from single crystal
Cell parameters: a: 14.33(1) b: 8.183(6) c: 9.90(1) alpha: 90 beta: 113.94(3) gamma: 90 volume: 1062(3) crystal system: monoclinic
x	intensity
5	0
5.22	29.603
5.44	11.097
5.66	11.2519
5.88	21.1575
6.1	22.454
6.32	9.27121
6.54	7.45604
6.76	19.5328
6.98	22.1131
7.2	17.3181
7.42	12.8497
7.64	3.36331
7.86	4.82993
8.08	4.48607
8.3	19.4464
8.52	20.9836
8.74	10.4149
8.96	19.248
9.18	14.8458
9.4	16.9205
9.62	6.88052
9.84	1.48648
10.06	27.8285
10.28	21.2102
10.5	34.1015
10.72	36.201
10.94	18.7083
11.16	20.5597
11.38	9.06562
11.6	12.2807
11.82	6.56532
12.04	0.951782
12.26	47.7636
12.48	6.90163
12.7	39.8266
12.92	21.6455
13.14	36.0719
13.36	127.282
13.58	44.9921
13.8	4.79857
14.02	10.1957
14.24	19.9325
14.46	15.7008
14.68	11.9958
14.9	7.07803
15.12	15.4937
15.34	26.5365
15.56	7.96216
15.78	11.0019
16	18.8998
16.22	17.2629
16.44	17.7294
16.66	22.9713
16.88	2.19045
17.1	13.9902
17.32	25.7422
17.54	26.4365
17.76	16.7771
17.98	14.0608
18.2	7.81731
18.42	7.03461
18.64	13.8225
18.86	5.8695
19.08	24.4758
19.3	31.6474
19.52	33.1189
19.74	3.37826
19.96	27.275
20.18	0.320419
20.4	28.2228
20.62	6.60194
20.84	20.0586
21.06	23.1459
21.28	14.2074
21.5	6.9229
21.72	18.8706
21.94	13.7916
22.16	3.26848
22.38	20.7975
22.6	9.0198
22.82	29.1171
23.04	32.1693
23.26	17.8637
23.48	7.30058
23.7	13.397
23.92	2.4099
24.14	9.35797
24.36	28.19
24.58	34.7526
24.8	14.9635
25.02	12.5838
25.24	14.4949
25.46	22.2509
25.68	2.41505
25.9	5.46382
26.12	17.4733
26.34	23.7464
26.56	5.8475
26.78	19.2214
27	7.77783
27.22	0.776283
27.44	9.98006
27.66	18.6922
27.88	9.04781
28.1	19
28.32	39.1782
28.54	17.4452
28.76	25.0762
28.98	32.9308
29.2	16.627
29.42	20.3849
29.64	33.3391
29.86	28.4149
30.08	22.8905
30.3	5.94499
30.52	6.01194
30.74	9.64826
30.96	16.8578
31.18	16.3993
31.4	19.3703
31.62	42.0947
31.84	24.272
32.06	5.98662
32.28	22.4172
32.5	16.4513
32.72	17.0577
32.94	8.87358
33.16	11.6459
33.38	13.6756
33.6	17.3504
33.82	12.9629
34.04	9.53141
34.26	25.2142
34.48	12.0931
34.7	14.964
34.92	10.7515
35.14	20.1885
35.36	20.2445
35.58	9.77576
35.8	7.97513
36.02	22.0858
36.24	5.27115
36.46	12.0312
36.68	11.7283
36.9	2.72699
37.12	5.3822
37.34	11.9323
37.56	16.9915
37.78	12.9461
38	26.7723
38.22	32.2848
38.44	7.67152
38.66	2.0369
38.88	10.2233
39.1	12.899
39.32	24.9294
39.54	13.6309
39.76	14.918
39.98	22.8633
40.2	5.71991
40.42	1.03198
40.64	15.1255
40.86	10.1505
41.08	0.52322
41.3	23.4814
41.52	13.8973
41.74	4.11647
41.96	9.74249
42.18	8.30119
42.4	12.2281
42.62	24.0049
42.84	24.955
43.06	13.6433
43.28	8.80521
43.5	12.9592
43.72	11.6646
43.94	14.7986
44.16	8.57828
44.38	17.8212
44.6	8.64815
44.82	14.557
45.04	30.15
45.26	10.1138
45.48	7.9571
45.7	18.0238
45.92	9.11586
46.14	18.5658
46.36	8.51243
46.58	6.9477
46.8	8.8527
47.02	11.2722
47.24	11.4163
47.46	12.9505
47.68	19.4784
47.9	9.09996
48.12	15.0984
48.34	11.0868
48.56	19.0416
48.78	19.8051
49	10.307
49.22	1.73772
49.44	2.29232
49.66	5.11757
49.88	23.402
50.1	6.41381
50.32	12.641
50.54	7.78577
50.76	16.3356
50.98	0.794794
51.2	17.4343
51.42	7.99628
51.64	13.0104
51.86	16.2968
52.08	5.40316
52.3	12.5599
52.52	4.01103
52.74	10.2129
52.96	19.5382
53.18	17.4018
53.4	10.1592
53.62	13.4314
53.84	11.2273
54.06	0.545958
54.28	22.7384
54.5	7.30375
54.72	0.774378
54.94	9.02264
55.16	9.7667
55.38	15.2834
55.6	5.87488
55.82	25.4946
56.04	20.7825
56.26	3.65328
56.48	5.88033
56.7	1.8639
56.92	16.5054
57.14	8.87541
57.36	0.973616
57.58	13.8672
57.8	12.8078
58.02	12.628
58.24	5.39592
58.46	11.5913
58.68	7.65617
58.9	11.4001
59.12	1.43497
59.34	7.1514
59.56	3.82889
59.78	5.01481
60	1.15712
60.22	5.44305
60.44	2.62763
60.66	7.98213
60.88	17.232
61.1	1.50289
61.32	11.7058
61.54	4.87732
61.76	14.093
61.98	3.39873
62.2	15.5732
62.42	13.122
62.64	2.15813
62.86	2.24189
63.08	6.28688
63.3	11.5342
63.52	20.8664
63.74	8.83624
63.96	2.93712
64.18	10.1071
64.4	3.40184
64.62	13.3852
64.84	6.15222
65.06	8.14246
65.28	1.84191
65.5	7.15988
65.72	6.73879
65.94	17.5183
66.16	8.64836
66.38	14.8296
66.6	9.01069
66.82	1.9518
67.04	14.7153
67.26	20.8119
67.48	6.93955
67.7	3.99475
67.92	23.1174
68.14	1.88233
68.36	12.3607
68.58	13.5621
68.8	6.50781
69.02	8.61692
69.24	12.7993
69.46	6.17919
69.68	6.35294
69.9	4.48656
70.12	22.8237
70.34	8.12691
70.56	8.1885
70.78	10.1811
71	3.13643
71.22	5.40217
71.44	6.19215
71.66	10.4558
71.88	4.66791
72.1	3.70165
72.32	2.32873
72.54	1.74019
72.76	3.38083
72.98	10.8366
73.2	1.2152
73.42	19.6965
73.64	7.41632
73.86	4.39956
74.08	2.01089
74.3	6.6097
74.52	15.4677
74.74	1.40686
74.96	13.31
75.18	16.3813
75.4	5.19811
75.62	9.302
75.84	5.74283
76.06	10.3082
76.28	10.4971
76.5	10.7337
76.72	16.599
76.94	0.149967
77.16	7.9803
77.38	9.12572
77.6	7.12012
77.82	12.2031
78.04	11.0073
78.26	19.3381
78.48	0.972474
78.7	11.7882
78.92	13.75
79.14	6.17377
79.36	7.01626
79.58	13.9259
79.8	7.89818
80.02	4.79693
80.24	8.79231
80.46	12.9832
80.68	16.5704
80.9	4.55264
81.12	4.53557
81.34	7.48824
81.56	2.36669
81.78	4.54221
82	7.52602
82.22	19.5561
82.44	3.04576
82.66	3.14724
82.88	1.24323
83.1	8.49377
83.32	5.7884
83.54	2.1905
83.76	9.37067
83.98	7.47789
84.2	7.41296
84.42	2.32633
84.64	2.25919
84.86	11.8244
85.08	5.6864
85.3	1.6214
85.52	10.1646
85.74	5.22262
85.96	7.30063
86.18	3.14436
86.4	6.32913
86.62	7.36514
86.84	2.56135
87.06	0.829721
87.28	13.2694
87.5	2.49314
87.72	10.6581
87.94	8.064
88.16	14.0335
88.38	7.02489
88.6	7.21029
88.82	19.0887
89.04	11.3794
89.26	2.23901
89.48	18.6023
89.7	7.24421
89.92	10.832
