Measurement: Powder, Xray Data XY Processed
Mineral: Tungstite
Rruff sample: R050452
Ideal chemistry: WO_3_H_2_O
Locality: Sinaloa (near shared border with Chihuahua and Durango), Mexico
Source: University of Arizona Mineral Museum
Description: Yellow massive
Diffraction sample description: Powder, using Mo radiation
Measured chemistry: (W_0.95_Fe^3+^_0.05_)_Σ=1_(O_2.85_(OH)_0.15_)_Σ=3_·H_2_O; H_2_O estimated by difference; (OH) by charge balance
x	intensity
1.71	0
1.86	0.117932
2.01	10.551
2.16	47.0662
2.31	27.6139
2.46	26.4054
2.61	47.8856
2.76	0.016089
2.91	20.7891
3.06	0.3722
3.21	18.8691
3.36	15.6099
3.51	36.1154
3.66	38.7545
3.81	132.063
3.96	214.263
4.11	234.446
4.26	271.319
4.41	259.188
4.56	263.833
4.71	290.048
4.86	291.81
5.01	287.916
5.16	297.52
5.31	311.89
5.46	308.827
5.61	272.119
5.76	271.213
5.91	254.57
6.06	260.156
6.21	243.972
6.36	240.35
6.51	209.301
6.66	166.799
6.81	158.064
6.96	149.701
7.11	120.007
7.26	102.905
7.41	76.576
7.56	57.526
7.71	51.7261
7.86	11.8218
8.01	12.5875
8.16	5.03364
8.31	2.83261
8.46	8.54932
8.61	1.50925
8.76	10.9475
8.91	1.65851
9.06	0.131267
9.21	3.6806
9.36	12.4366
9.51	5.70686
9.66	21.1505
9.81	38.7343
9.96	66.5273
10.11	136.122
10.26	306.076
10.41	743.861
10.56	1225.06
10.71	1256.16
10.86	939.656
11.01	617.446
11.16	459.328
11.31	398.514
11.46	374.84
11.61	372.714
11.76	391.642
11.91	416.315
12.06	426.184
12.21	422.429
12.36	431.708
12.51	435.302
12.66	398.787
12.81	382.188
12.96	359.671
13.11	322.582
13.26	289.027
13.41	253.855
13.56	195.829
13.71	172.629
13.86	129.758
14.01	105.558
14.16	73.9276
14.31	74.328
14.46	75.023
14.61	58.8613
14.76	68.8789
14.91	73.5379
15.06	77.1268
15.21	76.7278
15.36	86.6071
15.51	109.73
15.66	145.003
15.81	151.226
15.96	188.448
16.11	183.341
16.26	179.675
16.41	187.816
16.56	202.139
16.71	197.57
16.86	179.494
17.01	179.26
17.16	149.724
17.31	119.84
17.46	97.7815
17.61	72.5065
17.76	48.8066
17.91	28.9865
18.06	39.0836
18.21	32.4579
18.36	6.08066
18.51	3.01835
18.66	0.837257
18.81	14.4102
18.96	10.9526
19.11	2.52705
19.26	4.29416
19.41	6.48967
19.56	9.90819
19.71	3.46001
19.86	7.12627
20.01	7.04294
20.16	9.16329
20.31	12.8558
20.46	12.8978
20.61	42.0539
20.76	61.9861
20.91	110.938
21.06	191.094
21.21	295.704
21.36	328.688
21.51	306.784
21.66	238.275
21.81	227.332
21.96	228.659
22.11	252.522
22.26	285.246
22.41	293.036
22.56	316.717
22.71	318.46
22.86	303.262
23.01	287.948
23.16	278.361
23.31	275.405
23.46	255.972
23.61	244.791
23.76	233.718
23.91	246.872
24.06	259.718
24.21	298.887
24.36	305.681
24.51	348.999
24.66	354.958
24.81	383.72
24.96	369.33
25.11	372.388
25.26	353.264
25.41	332.564
25.56	287.662
25.71	260.723
25.86	223.546
26.01	163.819
26.16	148.701
26.31	128.921
26.46	106.846
26.61	74.5683
26.76	56.1307
26.91	32.2118
27.06	17.701
27.21	10.2805
27.36	2.6788
27.51	0.320354
27.66	5.08863
27.81	4.92356
27.96	2.32911
28.11	1.30574
28.26	5.65783
28.41	3.0005
28.56	1.89324
28.71	20.5434
28.86	12.2188
29.01	6.53468
29.16	1.68938
29.31	0.830377
29.46	3.63011
29.61	0.177504
29.76	1.6088
29.91	6.23527
30.06	5.21282
30.21	1.89142
30.36	9.21471
30.51	14.2995
30.66	7.69643
30.81	10.0605
30.96	23.4242
31.11	30.1911
31.26	29.0941
31.41	32.2303
31.56	21.3717
31.71	14.6641
31.86	19.6331
32.01	2.17333
32.16	3.24025
32.31	0.118519
32.46	0.361305
32.61	2.00676
32.76	12.9788
32.91	12.1179
33.06	20.9096
33.21	21.4619
33.36	26.5699
33.51	25.9513
33.66	20.8897
33.81	33.1315
33.96	38.7443
34.11	48.6859
34.26	61.8744
34.41	75.9465
34.56	70.9314
34.71	70.5096
34.86	76.1347
35.01	86.3194
35.16	79.2453
35.31	72.3549
35.46	65.4013
35.61	51.5384
35.76	42.596
35.91	45.5398
36.06	26.8792
36.21	18.6258
36.36	28.2292
36.51	17.5018
36.66	0.977813
36.81	3.65337
36.96	12.154
37.11	0.979616
37.26	0.371775
37.41	0.864943
37.56	6.03062
37.71	0.579171
37.86	7.82247
38.01	2.99125
38.16	9.41972
38.31	20.846
38.46	9.51432
38.61	9.38255
38.76	20.288
38.91	19.5329
39.06	14.7831
39.21	20.759
39.36	26.8237
39.51	26.9995
39.66	28.1432
39.81	27.8686
39.96	26.3153
40.11	33.7589
40.26	33.2822
40.41	30.321
40.56	21.33
40.71	19.3599
40.86	20.0945
41.01	12.2769
41.16	15.2456
41.31	5.53614
41.46	4.86105
41.61	0.381367
41.76	5.03731
41.91	1.01872
42.06	6.63924
42.21	0.866684
42.36	2.44645
42.51	1.96848
42.66	8.01522
42.81	0.001443
42.96	9.19886
43.11	14.3632
43.26	14.477
43.41	19.618
43.56	19.3954
43.71	13.7785
43.86	19.9012
44.01	19.6067
44.16	19.4967
44.31	12.5056
44.46	8.0552
44.61	5.69619
44.76	9.62843
44.91	9.23649
45.06	14.2921
45.21	18.8864
45.36	17.5308
45.51	19.0304
45.66	23.258
45.81	26.085
45.96	30.7308
46.11	32.2309
46.26	19.6976
46.41	19.9293
46.56	30.4833
46.71	34.9902
46.86	34.4309
47.01	27.1046
47.16	34.538
47.31	33.1126
47.46	41.2422
47.61	32.1527
47.76	46.8237
47.91	39.2224
48.06	20.772
48.21	31.9663
48.36	23.993
48.51	20.7909
48.66	12.7805
48.81	14.4539
48.96	18.6428
49.11	13.2825
49.26	18.3854
49.41	2.57606
49.56	14.5987
49.71	6.15093
49.86	4.47889
50.01	2.3172
50.16	18.8483
50.31	14.1167
50.46	3.12725
50.61	2.84386
