Measurement: Powder, Xray Data XY Processed
Mineral: Tveitite-(Y)
Rruff sample: R060895
Ideal chemistry: (Y,Na)_6_(Ca,Na,Y)_12_(Ca,Na)F_42_
Locality: Rov-Gora, West Keivy, Kola Peninsula, Russia
Source: Michael Scott
Description: Pink massive
Diffraction sample description: Powder
Cell parameters: a: 16.9954(6) b: 16.9954(6) c: 9.6824(4) alpha: 90 beta: 90 gamma: 120 volume: 2422.0(2) crystal system: hexagonal
x	intensity
5	0
5.22	9.76506
5.44	1.77112
5.66	11.787
5.88	16.1222
6.1	1.98136
6.32	14.4491
6.54	6.95307
6.76	0.061152
6.98	0.643747
7.2	7.48954
7.42	9.06904
7.64	8.65618
7.86	2.89172
8.08	5.91913
8.3	2.14711
8.52	4.32301
8.74	4.09071
8.96	2.65824
9.18	17.9167
9.4	3.32665
9.62	5.91317
9.84	7.55233
10.06	12.4774
10.28	7.08012
10.5	10.1045
10.72	14.3107
10.94	33.6156
11.16	6.06958
11.38	9.59271
11.6	8.06343
11.82	7.74167
12.04	10.4588
12.26	13.9025
12.48	6.87898
12.7	10.9193
12.92	4.14721
13.14	4.42643
13.36	2.50549
13.58	10.587
13.8	0.483724
14.02	4.26069
14.24	4.17192
14.46	3.85985
14.68	4.74533
14.9	11.6694
15.12	0.350249
15.34	0.307535
15.56	4.36218
15.78	7.32292
16	3.11546
16.22	5.20318
16.44	6.23571
16.66	2.01747
16.88	2.92639
17.1	9.74221
17.32	2.54892
17.54	4.26272
17.76	2.14678
17.98	5.96157
18.2	5.86515
18.42	22.8443
18.64	3.68087
18.86	2.83069
19.08	7.09318
19.3	18.0774
19.52	2.56707
19.74	0.354304
19.96	4.80507
20.18	1.92085
20.4	5.14534
20.62	3.37069
20.84	4.45465
21.06	5.54427
21.28	9.61228
21.5	6.53177
21.72	6.50986
21.94	3.5059
22.16	5.61335
22.38	1.36165
22.6	4.66553
22.82	0.620111
23.04	8.50808
23.26	6.56855
23.48	3.52607
23.7	4.55398
23.92	2.53819
24.14	3.39603
24.36	3.37865
24.58	5.54169
24.8	6.5846
25.02	5.89235
25.24	17.9604
25.46	4.98297
25.68	4.89042
25.9	11.9906
26.12	8.6448
26.34	0.362232
26.56	6.01592
26.78	4.68168
27	5.15275
27.22	4.81217
27.44	11.2115
27.66	146.873
27.88	47.064
28.1	338.108
28.32	21.5134
28.54	9.56183
28.76	10.7963
28.98	5.19156
29.2	2.53734
29.42	2.99057
29.64	3.36761
29.86	3.71603
30.08	0.889188
30.3	4.78767
30.52	9.53566
30.74	3.3282
30.96	11.829
31.18	0.791682
31.4	3.63189
31.62	0.479221
31.84	3.18568
32.06	11.3893
32.28	21.2429
32.5	46.1981
32.72	6.22667
32.94	5.78743
33.16	3.47462
33.38	4.47556
33.6	4.63589
33.82	5.77117
34.04	1.89943
34.26	1.06658
34.48	3.13335
34.7	11.2792
34.92	20.5626
35.14	5.63795
35.36	6.74
35.58	6.86999
35.8	7.93572
36.02	8.98936
36.24	5.04813
36.46	4.19539
36.68	3.44314
36.9	6.31963
37.12	5.30748
37.34	7.10646
37.56	6.02646
37.78	7.41037
38	4.405
38.22	8.3445
38.44	9.2454
38.66	5.16064
38.88	5.04091
39.1	4.90113
39.32	4.23974
39.54	11.2656
39.76	9.14248
39.98	1.11986
40.2	2.17349
40.42	10.0042
40.64	9.80346
40.86	3.87157
41.08	4.9859
41.3	7.86443
41.52	8.56108
41.74	3.28519
41.96	1.41387
42.18	7.65916
42.4	3.59317
42.62	4.6999
42.84	2.73976
43.06	2.72401
43.28	3.58349
43.5	4.44694
43.72	3.34895
43.94	5.49234
44.16	11.4095
44.38	2.90483
44.6	8.23403
44.82	3.80597
45.04	1.11487
45.26	1.54948
45.48	7.02873
45.7	1.66153
45.92	3.22782
46.14	139.001
46.36	32.433
46.58	441.06
46.8	43.2845
47.02	11.938
47.24	7.50132
47.46	13.0552
47.68	3.45989
47.9	4.17263
48.12	0.416214
48.34	4.91142
48.56	0.808918
48.78	8.54713
49	5.93153
49.22	5.13523
49.44	3.93144
49.66	9.01346
49.88	2.29953
50.1	8.42955
50.32	6.59918
50.54	9.80288
50.76	3.13934
50.98	5.40507
51.2	0.355037
51.42	4.69779
51.64	6.7662
51.86	9.84148
52.08	10.7245
52.3	4.56327
52.52	5.37425
52.74	1.50216
52.96	3.47469
53.18	0.342639
53.4	8.32761
53.62	0.114232
53.84	4.25539
54.06	9.51199
54.28	7.34506
54.5	6.23554
54.72	9.00389
54.94	24.255
55.16	79.3141
55.38	112.274
55.6	2.37747
55.82	6.75595
56.04	3.05957
56.26	7.2211
56.48	1.4588
56.7	3.58462
56.92	5.68506
57.14	11.7744
57.36	0.611601
57.58	3.46946
57.8	10.573
58.02	6.30524
58.24	3.14205
58.46	6.46852
58.68	0.756089
58.9	6.77314
59.12	2.00462
59.34	1.18309
59.56	3.29511
59.78	3.50379
60	1.57546
60.22	9.58432
60.44	5.67569
60.66	7.72127
60.88	5.49581
61.1	0.455649
61.32	4.47332
61.54	6.55131
61.76	6.55815
61.98	0.383378
62.2	4.63684
62.42	3.6816
62.64	3.7829
62.86	0.149687
63.08	6.91087
63.3	4.82598
63.52	5.8299
63.74	1.73401
63.96	1.66225
64.18	5.62675
64.4	0.580073
64.62	4.5153
64.84	4.53726
65.06	0.544249
65.28	3.45999
65.5	2.64354
65.72	3.58611
65.94	6.32583
66.16	1.24889
66.38	4.20854
66.6	2.10041
66.82	7.01355
67.04	2.85731
67.26	1.84397
67.48	9.85121
67.7	5.79254
67.92	18.7588
68.14	6.87428
68.36	1.00749
68.58	10.2682
68.8	1.59484
69.02	2.65909
69.24	1.97417
69.46	6.33618
69.68	3.16498
69.9	6.18643
70.12	1.93197
70.34	0.830704
70.56	5.22417
70.78	2.18394
71	5.11363
71.22	6.11612
71.44	0.738091
71.66	4.99955
71.88	4.72013
72.1	6.67726
72.32	3.56405
72.54	7.57412
72.76	3.38882
72.98	0.692039
73.2	6.16252
73.42	6.83894
73.64	4.59191
73.86	6.14237
74.08	8.96657
74.3	1.75431
74.52	8.574
74.74	13.6355
74.96	14.5674
75.18	17.5587
75.4	3.5972
75.62	7.92736
75.84	2.07691
76.06	4.18013
76.28	4.37998
76.5	2.63455
76.72	10.0029
76.94	4.22957
77.16	1.40663
77.38	4.64877
77.6	1.80302
77.82	3.85363
78.04	3.63698
78.26	1.70772
78.48	6.79003
78.7	0.136071
78.92	4.93003
79.14	3.94773
79.36	5.92755
79.58	0.778523
79.8	5.61985
80.02	11.6058
80.24	3.74144
80.46	2.80118
80.68	6.89403
80.9	9.01639
81.12	3.0204
81.34	7.09509
81.56	7.99105
81.78	7.25234
82	3.18989
82.22	0.27893
82.44	0.325153
82.66	3.29559
82.88	4.36156
83.1	2.3788
83.32	3.5037
83.54	6.52238
83.76	5.29105
83.98	8.13279
84.2	4.71227
84.42	0.59303
84.64	6.34835
84.86	3.04157
85.08	22.6548
85.3	4.36371
85.52	0.055519
85.74	0.412773
85.96	15.3607
86.18	4.71924
86.4	76.8215
86.62	15.8923
86.84	4.90784
87.06	11.2185
87.28	6.46973
87.5	8.72539
87.72	0.020329
87.94	3.25075
88.16	4.47991
88.38	4.82041
88.6	5.62088
88.82	5.78444
89.04	4.04797
89.26	2.03003
89.48	6.12147
89.7	5.6175
89.92	0.709047
