Measurement: Powder, Xray Data XY Processed
Mineral: Ulexite
Rruff sample: R050062
Ideal chemistry: NaCaB_5_O_6_(OH)_6_5H_2_O
Locality: California, USA
Source: Rock Currier
Description: Compact parallel fibrous group
Diffraction sample description: Powder
Measured chemistry: (Na_0.60_Ca_0.20_[box]_20_)_Σ=1_Ca_1.00_B_5.00_O_6_(OH)_6_·5H_2_O ; B not measured but assumed by stoichiometry and charge balance.
Cell parameters: a: 8.805(1) b: 12.855(1) c: 6.6648(7) alpha: 90.28(1) beta: 109.09(1) gamma: 105.027(9) volume: 685.2(1) crystal system: triclinic
x	intensity
5	0
5.22	22.407
5.44	5.529
5.66	12.079
5.88	2.614
6.1	6.25
6.32	13.069
6.54	14.859
6.76	3.853
6.98	52.207
7.2	1272.73
7.42	15.431
7.64	12.42
7.86	15.014
8.08	4.795
8.3	4.744
8.52	0.015
8.74	13.968
8.96	1.15
9.18	9.553
9.4	10.238
9.62	2.657
9.84	1.403
10.06	1.485
10.28	4.835
10.5	0.768
10.72	9.861
10.94	9.802
11.16	74.885
11.38	196.942
11.6	24.073
11.82	7.992
12.04	0.822
12.26	2.308
12.48	12.699
12.7	3.605
12.92	4.69
13.14	0.462
13.36	8.337
13.58	4.001
13.8	0.585
14.02	1.401
14.24	9.077
14.46	3.133
14.68	36.84
14.9	33.272
15.12	27.707
15.34	13.82
15.56	30.232
15.78	9.382
16	0.75
16.22	2.823
16.44	10.79
16.66	8.421
16.88	5.051
17.1	32.21
17.32	2.429
17.54	10.527
17.76	3.87
17.98	4.822
18.2	0.176
18.42	8.721
18.64	7.656
18.86	3.635
19.08	20.584
19.3	27.884
19.52	8.94
19.74	3.394
19.96	4.922
20.18	3.14
20.4	28.54
20.62	11.049
20.84	17.646
21.06	8.017
21.28	21.544
21.5	74.305
21.72	19.043
21.94	20.232
22.16	7.886
22.38	7.031
22.6	6.782
22.82	5.334
23.04	9.81
23.26	3.183
23.48	8.51
23.7	4.829
23.92	0.765
24.14	9.801
24.36	6.932
24.58	42.076
24.8	61.144
25.02	1.195
25.24	1.832
25.46	2.197
25.68	4.926
25.9	5.558
26.12	8.225
26.34	0.517
26.56	4.329
26.78	19.446
27	49.711
27.22	7.097
27.44	7.736
27.66	57.533
27.88	14.396
28.1	8.752
28.32	5.026
28.54	33.229
28.76	53.834
28.98	103.153
29.2	9.971
29.42	20.505
29.64	135.157
29.86	25.552
30.08	1.285
30.3	27.776
30.52	6.743
30.74	103.929
30.96	3.894
31.18	1.014
31.4	101.389
31.62	30.691
31.84	19.289
32.06	8.548
32.28	4.497
32.5	16.353
32.72	17.899
32.94	4.594
33.16	4.804
33.38	72.55
33.6	134.259
33.82	19.16
34.04	7.858
34.26	22.227
34.48	65.221
34.7	50.072
34.92	116.173
35.14	7.29
35.36	42.471
35.58	2.735
35.8	3.629
36.02	14.458
36.24	11.111
36.46	26.564
36.68	1.957
36.9	4.483
37.12	56.691
37.34	4.559
37.56	18.675
37.78	22.49
38	5.064
38.22	1.438
38.44	10.471
38.66	1.8
38.88	35.687
39.1	4.377
39.32	37.837
39.54	6.73
39.76	18.642
39.98	3.129
40.2	0.121
40.42	93.331
40.64	9.315
40.86	0.645
41.08	26.062
41.3	18.87
41.52	20.106
41.74	77.638
41.96	3.367
42.18	8.147
42.4	9.932
42.62	21.566
42.84	6.041
43.06	23.826
43.28	56.659
43.5	9.255
43.72	6.669
43.94	63.259
44.16	1.981
44.38	17.691
44.6	17.081
44.82	40.629
45.04	23.302
45.26	7.222
45.48	36.24
45.7	5.659
45.92	27.363
46.14	3.856
46.36	10.966
46.58	21.351
46.8	6.205
47.02	44.847
47.24	25.707
47.46	1.49
47.68	8.972
47.9	9.758
48.12	21.39
48.34	21.092
48.56	18.565
48.78	29.063
49	6.628
49.22	16.789
49.44	3.946
49.66	0.906
49.88	8.998
50.1	13.081
50.32	4.374
50.54	15.984
50.76	18.37
50.98	24.423
51.2	20.389
51.42	3.635
51.64	0.054
51.86	6.077
52.08	2.52
52.3	32.91
52.52	18.298
52.74	7.891
52.96	4.891
53.18	22.827
53.4	31.369
53.62	24.165
53.84	8.343
54.06	31.513
54.28	2.771
54.5	0.256
54.72	11.984
54.94	2.117
55.16	15.376
55.38	9.685
55.6	0.984
55.82	10.837
56.04	17.371
56.26	0.422
56.48	0.363
56.7	7.231
56.92	2.884
57.14	6.117
57.36	0.964
57.58	16.762
57.8	9.243
58.02	3.415
58.24	5.894
58.46	3.013
58.68	4.977
58.9	11.392
59.12	5.529
59.34	0.579
59.56	7.345
59.78	8.347
60	5.445
60.22	8.927
60.44	15.685
60.66	7.364
60.88	2.545
61.1	5.017
61.32	5.136
61.54	9.165
61.76	7.134
61.98	2.17
62.2	5.177
62.42	4.036
62.64	3.001
62.86	9.922
63.08	11.825
63.3	19.44
63.52	0.973
63.74	4.608
63.96	1.44
64.18	10.267
64.4	0.69
64.62	6.38
64.84	8.484
65.06	0.789
65.28	5.03
65.5	12.228
65.72	7.451
65.94	14.719
66.16	2.962
66.38	7.172
66.6	4.772
66.82	2.93
67.04	9.14
67.26	0.867
67.48	3.848
67.7	8.824
67.92	0.151
68.14	8.033
68.36	4.49
68.58	9.499
68.8	9.456
69.02	11.361
69.24	9.377
69.46	5.389
69.68	3.319
69.9	2.188
70.12	5.557
70.34	0.513
70.56	8.117
70.78	14.653
71	8.59
71.22	1.451
71.44	5.521
71.66	5.538
71.88	4.538
72.1	7.619
72.32	16.784
72.54	2.785
72.76	4.968
72.98	0.656
73.2	1.501
73.42	3.741
73.64	1.037
73.86	0.895
74.08	5.094
74.3	7.115
74.52	5.215
74.74	4.28
74.96	5.013
75.18	17.962
75.4	12.575
75.62	4.476
75.84	9.335
76.06	16.323
76.28	4.152
76.5	14.891
76.72	7.027
76.94	2.145
77.16	6.585
77.38	15.517
77.6	11.364
77.82	5.43
78.04	2.403
78.26	2.268
78.48	0.809
78.7	2.552
78.92	0.894
79.14	0.822
79.36	6.017
79.58	9.183
79.8	2.723
80.02	3.055
80.24	6.102
80.46	0.291
80.68	8.45
80.9	5.535
81.12	5.444
81.34	2.208
81.56	8.11
81.78	3.1
82	0.046
82.22	1.262
82.44	8.76
82.66	16.986
82.88	2.236
83.1	6.416
83.32	13.717
83.54	11.849
83.76	6.997
83.98	6.168
84.2	1.723
84.42	9.248
84.64	3.273
84.86	9.049
85.08	7.801
85.3	0.478
85.52	11.237
85.74	9.229
85.96	8.237
86.18	10.167
86.4	4.988
86.62	0.405
86.84	1.474
87.06	7.705
87.28	6.757
87.5	10.907
87.72	3.96
87.94	6.021
88.16	5.839
88.38	4.725
88.6	7.796
88.82	3.926
89.04	1.495
89.26	4.474
89.48	5.482
89.7	9.557
89.92	7.402
