Measurement: Powder, Xray Data XY Processed
Mineral: Uranophane
Rruff sample: R070038
Ideal chemistry: Ca(U^6+^O_2_)_2_(SiO_3_OH)_2_5H_2_O
Locality: Kyzulsai Mo-U deposit, south Kazakhstan
Source: Michael Scott
Description: Lemon-yellow granular coating
Diffraction sample description: Powder, using Mo radiation
x	intensity
5.01	337.094
5.09	786.235
5.17	1243.27
5.25	1296.19
5.33	942.052
5.41	395.009
5.49	129.492
5.57	26.0135
5.65	1.67601
5.73	6.1546
5.81	1.47424
5.89	4.79266
5.97	29.9012
6.05	126.258
6.13	210.474
6.21	260.15
6.29	212.357
6.37	112.053
6.45	51.4498
6.53	3.12197
6.61	12.7226
6.69	10.0486
6.77	2.04735
6.85	2.51935
6.93	4.39227
7.01	2.88254
7.09	4.56616
7.17	3.16066
7.25	3.70012
7.33	28.5847
7.41	138.887
7.49	252.835
7.57	299.905
7.65	220.468
7.73	103.498
7.81	35.4078
7.89	1.59697
7.97	0.190262
8.05	0.807039
8.13	1.61703
8.21	22.016
8.29	91.4586
8.37	331.473
8.45	605.519
8.53	674.93
8.61	509.986
8.69	228.375
8.77	90.9646
8.85	46.1181
8.93	35.9266
9.01	29.5312
9.09	38.2329
9.17	33.5384
9.25	28.8131
9.33	50.7198
9.41	99.2639
9.49	145.005
9.57	152.907
9.65	104.414
9.73	33.5959
9.81	2.60796
9.89	1.52766
9.97	11.3227
10.05	32.3935
10.13	134.608
10.21	376.747
10.29	644.651
10.37	707.576
10.45	491.996
10.53	193.383
10.61	48.9457
10.69	5.33429
10.77	0.572248
10.85	3.52025
10.93	3.44001
11.01	3.23564
11.09	3.23483
11.17	8.49496
11.25	79.4345
11.33	141.185
11.41	192.06
11.49	350.796
11.57	641.129
11.65	780.619
11.73	576.585
11.81	332.503
11.89	245.732
11.97	199.017
12.05	105.254
12.13	36.4076
12.21	1.337
12.29	4.10755
12.37	4.32537
12.45	5.84569
12.53	85.9945
12.61	332.638
12.69	651.195
12.77	748.034
12.85	513.178
12.93	187.408
13.01	47.8508
13.09	40.9338
13.17	76.3316
13.25	56.6865
13.33	31.9254
13.41	35.8803
13.49	120.993
13.57	349.302
13.65	524.874
13.73	524.055
13.81	442.171
13.89	444.911
13.97	498.982
14.05	469.363
14.13	318.023
14.21	162.432
14.29	66.8966
14.37	59.3608
14.45	45.9773
14.53	25.7862
14.61	5.95953
14.69	5.01053
14.77	0.922429
14.85	3.57518
14.93	34.9212
15.01	109.01
15.09	203.195
15.17	223.267
15.25	165.119
15.33	102.356
15.41	97.0434
15.49	150.434
15.57	178.269
15.65	139.148
15.73	69.4891
15.81	38.4097
15.89	23.1251
15.97	45.3671
16.05	70.7565
16.13	124.019
16.21	160.609
16.29	125.124
16.37	70.0255
16.45	20.2255
16.53	1.72993
16.61	0.344751
16.69	5.1992
16.77	0.801117
16.85	5.849
16.93	12.3085
17.01	4.19651
17.09	12.7071
17.17	16.5328
17.25	3.16184
17.33	2.08567
17.41	0.580174
17.49	0.996161
17.57	0.125222
17.65	1.20839
17.73	2.59549
17.81	6.37637
17.89	28.5833
17.97	50.5597
18.05	58.7161
18.13	46.0789
18.21	33.9908
18.29	48.1022
18.37	102.342
18.45	193.814
18.53	282.594
18.61	285.723
18.69	221.807
18.77	121.173
18.85	69.3998
18.93	75.7073
19.01	61.6412
19.09	65.35
19.17	61.3838
19.25	86.0677
19.33	175.926
19.41	283.518
19.49	302.216
19.57	236.045
19.65	148.265
19.73	90.9523
19.81	95.3994
19.89	80.9963
19.97	58.6254
20.05	28.1826
20.13	5.19059
20.21	0.514319
20.29	0.902566
20.37	0.821389
20.45	4.60384
20.53	29.5674
20.61	41.5733
20.69	84.0282
20.77	130.495
20.85	135.105
20.93	104.404
21.01	49.8852
21.09	6.15305
21.17	0.624396
21.25	24.5334
21.33	118.922
21.41	207.014
21.49	236.717
21.57	262.947
21.65	248.97
21.73	234.609
21.81	212.534
21.89	182.828
21.97	123.502
22.05	63.8096
22.13	22.81
22.21	25.7957
22.29	44.2428
22.37	49.3954
22.45	40.493
22.53	38.0825
22.61	2.28362
22.69	0.908335
22.77	3.5382
22.85	3.02624
22.93	13.3959
23.01	74.9609
23.09	102.594
23.17	114.336
23.25	163.048
23.33	205.47
23.41	223.04
23.49	228.498
23.57	194.971
23.65	116.761
23.73	77.1492
23.81	100.364
23.89	104.395
23.97	94.823
24.05	83.0192
24.13	87.1057
24.21	74.3212
24.29	52.3025
24.37	47.9236
24.45	50.7409
24.53	87.104
24.61	86.0743
24.69	100.55
24.77	66.5854
24.85	49.5936
24.93	6.76465
25.01	2.29915
25.09	5.37536
25.17	0.812029
25.25	6.38282
25.33	7.65177
25.41	27.7523
25.49	65.6604
25.57	107.892
25.65	80.2
25.73	78.9629
25.81	68.7812
25.89	87.4522
25.97	65.2855
26.05	79.4661
26.13	55.2832
26.21	46.113
26.29	8.52492
26.37	2.16571
26.45	1.34948
26.53	1.57175
26.61	22.6584
26.69	44.3528
26.77	35.1853
26.85	24.2092
26.93	19.2195
27.01	0.532349
27.09	3.47843
27.17	3.31825
27.25	24.8886
27.33	83.2589
27.41	103.675
27.49	76.1918
27.57	68.3454
27.65	28.5301
27.73	10.2207
27.81	0.277137
27.89	23.1909
27.97	29.5927
28.05	26.5326
28.13	71.3309
28.21	71.7073
28.29	61.7685
28.37	60.1756
28.45	89.8327
28.53	90.6739
28.61	82.8502
28.69	51.2471
28.77	37.154
28.85	33.9123
28.93	19.4003
29.01	2.44459
29.09	2.62592
29.17	0.559368
29.25	1.60095
29.33	6.60323
29.41	12.9306
29.49	15.8806
29.57	6.50729
29.65	2.93995
29.73	1.02771
29.81	15.047
29.89	13.408
29.97	29.3043
30.05	57.5341
30.13	27.1312
30.21	51.9276
30.29	37.1981
30.37	24.7661
30.45	21.9185
30.53	50.5433
30.61	62.6391
30.69	49.8281
30.77	49.8529
30.85	18.6961
30.93	16.0491
31.01	40.7532
31.09	27.8304
31.17	14.9511
31.25	33.2598
31.33	15.0681
31.41	14.3927
31.49	39.3002
31.57	32.1961
31.65	57.6974
31.73	68.9712
31.81	40.6178
31.89	58.1865
31.97	57.0912
32.05	51.7629
32.13	28.9595
32.21	28.6612
32.29	13.8252
32.37	12.5643
32.45	8.74102
32.53	36.7048
32.61	61.5827
32.69	23.4791
32.77	16.4614
32.85	1.86812
32.93	0.049122
33.01	34.8813
33.09	29.9179
33.17	30.2857
33.25	16.4425
33.33	56.3685
33.41	13.7627
33.49	3.3096
33.57	20.0828
33.65	0.82016
33.73	8.48242
33.81	5.06287
33.89	6.63704
33.97	2.4719
34.05	1.35594
34.13	12.9047
34.21	36.209
34.29	7.71801
34.37	17.5412
34.45	24.5867
34.53	33.3895
34.61	0.273497
34.69	25.4794
34.77	30.2663
34.85	14.4862
34.93	38.7578
35.01	23.9862
35.09	23.4467
35.17	52.1181
35.25	28.9919
35.33	14.9442
35.41	37.1428
35.49	34.9295
35.57	28.7541
35.65	0.013694
35.73	36.8202
35.81	3.42867
