Measurement: Powder, Xray Data XY Processed
Mineral: Uraninite
Rruff sample: R070747
Ideal chemistry: U^4+^O_2_
Locality: Topsham, Sagadahoc County, Maine, USA
Source: Michael Scott
Description: Elongated dodecahedral gray-black submetallic crystals
Diffraction sample description: Powder
Cell parameters: a: 5.4765(2) b: 5.4765(2) c: 5.4765(2) alpha: 90 beta: 90 gamma: 90 volume: 164.25(2) crystal system: cubic
x	intensity
5	0
5.22	7.8181
5.44	8.01521
5.66	5.81302
5.88	7.89584
6.1	8.37314
6.32	7.65935
6.54	15.0061
6.76	12.0965
6.98	5.81015
7.2	4.54467
7.42	5.05799
7.64	5.56784
7.86	5.05224
8.08	0.628694
8.3	2.00107
8.52	1.08517
8.74	2.19126
8.96	17.1318
9.18	0.87468
9.4	4.75393
9.62	0.69893
9.84	2.1715
10.06	5.9545
10.28	1.72236
10.5	2.36048
10.72	2.39146
10.94	7.29189
11.16	0.677691
11.38	2.38704
11.6	0.361849
11.82	3.77591
12.04	10.1835
12.26	1.53188
12.48	11.6605
12.7	3.17728
12.92	5.359
13.14	3.29649
13.36	2.38938
13.58	3.50913
13.8	6.85702
14.02	1.71516
14.24	6.62027
14.46	5.15774
14.68	8.12191
14.9	2.22527
15.12	1.92707
15.34	3.89123
15.56	5.749
15.78	7.71385
16	3.50508
16.22	1.15697
16.44	5.25841
16.66	5.25145
16.88	10.1871
17.1	5.10949
17.32	4.87764
17.54	1.91939
17.76	3.91711
17.98	1.9176
18.2	5.92501
18.42	5.00246
18.64	9.03652
18.86	0.729258
19.08	5.31023
19.3	0.423579
19.52	3.54367
19.74	10.7222
19.96	7.76911
20.18	8.04456
20.4	9.14088
20.62	2.35599
20.84	7.36331
21.06	4.2831
21.28	1.07159
21.5	4.16367
21.72	2.11215
21.94	3.03315
22.16	1.85724
22.38	6.75328
22.6	7.59614
22.82	5.54944
23.04	10.6185
23.26	5.52747
23.48	2.49461
23.7	9.65539
23.92	3.45918
24.14	4.51716
24.36	0.420846
24.58	1.25137
24.8	0.216829
25.02	3.15366
25.24	9.94647
25.46	6.85976
25.68	0.689341
25.9	3.81442
26.12	9.66985
26.34	0.978291
26.56	3.02366
26.78	6.10951
27	0.981172
27.22	6.80283
27.44	5.50917
27.66	16.0777
27.88	24.9351
28.1	171.607
28.32	398.83
28.54	62.2552
28.76	38.4912
28.98	13.0188
29.2	5.88144
29.42	1.58766
29.64	9.00907
29.86	7.00633
30.08	14.393
30.3	5.3124
30.52	10.4549
30.74	0.775797
30.96	1.4817
31.18	2.45043
31.4	7.2419
31.62	11.7892
31.84	2.20382
32.06	4.75594
32.28	18.4793
32.5	26.8722
32.72	234.793
32.94	64.2089
33.16	19.3677
33.38	6.79359
33.6	7.14232
33.82	6.84189
34.04	4.47475
34.26	1.78978
34.48	1.88748
34.7	8.47735
34.92	8.08162
35.14	4.434
35.36	7.22173
35.58	6.41145
35.8	13.5379
36.02	11.8834
36.24	4.12042
36.46	6.24892
36.68	9.20596
36.9	10.2454
37.12	5.66152
37.34	11.6307
37.56	14.6961
37.78	5.42217
38	3.38914
38.22	7.30086
38.44	1.13694
38.66	11.0061
38.88	12.9247
39.1	1.91512
39.32	7.79747
39.54	11.4198
39.76	8.26282
39.98	0.217578
40.2	3.43525
40.42	1.34562
40.64	3.28187
40.86	5.10205
41.08	0.914401
41.3	5.00007
41.52	3.84888
41.74	7.16332
41.96	6.19227
42.18	7.28044
42.4	8.03843
42.62	4.18443
42.84	0.420609
43.06	1.7199
43.28	2.85058
43.5	8.00717
43.72	9.23922
43.94	11.1136
44.16	8.90053
44.38	9.64024
44.6	6.39674
44.82	2.59843
45.04	10.8366
45.26	2.6546
45.48	0.264035
45.7	2.96457
45.92	8.57838
46.14	3.02958
46.36	6.77531
46.58	23.6081
46.8	180.868
47.02	209.189
47.24	64.172
47.46	16.4935
47.68	9.95654
47.9	12.7756
48.12	7.87334
48.34	5.03264
48.56	0.827645
48.78	4.23539
49	4.27328
49.22	6.13035
49.44	6.06625
49.66	14.7398
49.88	6.94241
50.1	12.5555
50.32	4.14091
50.54	0.290717
50.76	3.35811
50.98	6.52101
51.2	0.42966
51.42	13.5328
51.64	2.39033
51.86	0.504622
52.08	5.24024
52.3	13.2817
52.52	4.98443
52.74	3.08707
52.96	3.5962
53.18	9.93166
53.4	6.71014
53.62	2.24559
53.84	2.13882
54.06	0.234304
54.28	4.15126
54.5	1.31961
54.72	1.98887
54.94	4.15528
55.16	10.7801
55.38	46.1139
55.6	176.773
55.82	152.163
56.04	75.379
56.26	17.2198
56.48	18.6315
56.7	7.60277
56.92	5.96315
57.14	7.42545
57.36	2.91812
57.58	2.44875
57.8	7.95969
58.02	8.27977
58.24	35.8706
58.46	50.1726
58.68	17.3887
58.9	12.8202
59.12	4.94491
59.34	10.9256
59.56	3.63215
59.78	9.36066
60	9.064
60.22	0.601815
60.44	0.126983
60.66	0.445573
60.88	2.46413
61.1	2.32706
61.32	0.277352
61.54	1.89592
61.76	13.8091
61.98	0.918663
62.2	7.89485
62.42	11.0058
62.64	6.37263
62.86	8.48927
63.08	7.67717
63.3	5.9089
63.52	0.855088
63.74	14.3617
63.96	5.40835
64.18	6.33543
64.4	0.513684
64.62	0.393531
64.84	8.50192
65.06	3.31931
65.28	4.32939
65.5	9.76419
65.72	8.85353
65.94	1.42067
66.16	0.167566
66.38	3.92794
66.6	4.63016
66.82	5.12205
67.04	2.73451
67.26	7.25594
67.48	4.63684
67.7	0.18899
67.92	2.40066
68.14	6.80536
68.36	20.5902
68.58	25.6197
68.8	20.5842
69.02	4.76553
69.24	13.0802
69.46	2.28041
69.68	3.70945
69.9	0.890899
70.12	6.87052
70.34	9.3581
70.56	6.93772
70.78	6.37522
71	8.53123
71.22	2.79224
71.44	4.83842
71.66	10.9518
71.88	15.0653
72.1	11.2463
72.32	6.31509
72.54	8.24601
72.76	9.87505
72.98	2.76972
73.2	5.32243
73.42	5.26612
73.64	6.08308
73.86	7.45105
74.08	8.63921
74.3	6.73717
74.52	2.63297
74.74	9.60072
74.96	8.38204
75.18	8.22947
75.4	26.4519
75.62	54.9725
75.84	50.3852
76.06	34.4586
76.28	17.2136
76.5	8.93627
76.72	4.1459
76.94	10.8602
77.16	4.96683
77.38	5.07822
77.6	13.2726
77.82	31.743
78.04	27.1496
78.26	29.6275
78.48	18.4564
78.7	15.0797
78.92	9.1539
79.14	2.26959
79.36	7.29169
79.58	7.30453
79.8	10.1512
80.02	6.84761
80.24	4.31629
80.46	0.561997
80.68	9.88082
80.9	6.99108
81.12	6.20226
81.34	4.83432
81.56	0.409444
81.78	4.64886
82	3.47147
82.22	0.615525
82.44	12.4142
82.66	12.3765
82.88	5.5379
83.1	5.71443
83.32	1.76414
83.54	4.27278
83.76	9.48739
83.98	6.74966
84.2	3.58224
84.42	5.99242
84.64	2.89127
84.86	5.0566
85.08	11.8341
85.3	10.0698
85.52	4.17141
85.74	3.19635
85.96	1.92704
86.18	0.980244
86.4	0.882516
86.62	2.02126
86.84	28.9068
87.06	44.4033
87.28	31.5964
87.5	31.628
87.72	28.7904
87.94	7.56308
88.16	6.42212
88.38	11.2399
88.6	6.23097
88.82	7.11597
89.04	5.40091
89.26	5.69496
89.48	1.11263
89.7	1.71578
89.92	3.89507
