Measurement: Powder, Xray Data XY Processed
Mineral: Valleriite
Rruff sample: R070750
Ideal chemistry: 2[(Fe,Cu)S]1.53[(Mg,Al)(OH)_2_]
Locality: Talnakh Cu-Ni Deposit, Taimyr Peninsula, Noril'sk, Putoran Mts, Taymyrskiy Autonomous Okrug, Eastern-Siberian Region, Russia
Source: Michael Scott
Description: Bronze-yellow metallic massive associated with calcite
Diffraction sample description: Powder
x	intensity
5	0
5.22	23.785
5.44	4.70791
5.66	17.1965
5.88	28.7213
6.1	17.605
6.32	34.3358
6.54	0.532364
6.76	31.8619
6.98	1.7752
7.2	11.5207
7.42	24.3754
7.64	148.26
7.86	55.7909
8.08	28.6649
8.3	2.83353
8.52	21.3657
8.74	16.1321
8.96	24.2404
9.18	23.5574
9.4	23.3873
9.62	3.874
9.84	16.6386
10.06	20.7301
10.28	13.437
10.5	20.3948
10.72	13.9356
10.94	20.5818
11.16	18.0299
11.38	26.0325
11.6	13.1983
11.82	75.4015
12.04	236.164
12.26	56.9017
12.48	15.2056
12.7	18.9498
12.92	10.5851
13.14	11.9866
13.36	25.7465
13.58	29.7408
13.8	23.1826
14.02	9.90865
14.24	32.843
14.46	3.39649
14.68	6.82607
14.9	21.5431
15.12	39.8632
15.34	177.642
15.56	81.8266
15.78	21.1268
16	21.8817
16.22	14.9993
16.44	25.0282
16.66	8.60332
16.88	8.22623
17.1	2.92656
17.32	23.5569
17.54	20.6086
17.76	7.18446
17.98	18.9491
18.2	12.3085
18.42	12.1358
18.64	0.099602
18.86	13.275
19.08	19.3776
19.3	34.1643
19.52	38.9709
19.74	25.1559
19.96	23.0891
20.18	4.24559
20.4	27.6782
20.62	19.2819
20.84	22.9098
21.06	17.1311
21.28	19.0781
21.5	0.450661
21.72	28.3678
21.94	16.5374
22.16	22.1716
22.38	34.2709
22.6	8.9203
22.82	15.8919
23.04	36.9365
23.26	59.0768
23.48	13.7297
23.7	22.9843
23.92	15.9758
24.14	63.2568
24.36	123.221
24.58	9.88593
24.8	16.9973
25.02	3.51606
25.24	2.08345
25.46	18.3459
25.68	6.50414
25.9	3.8393
26.12	21.3041
26.34	25.1902
26.56	12.727
26.78	4.34928
27	11.9742
27.22	8.38228
27.44	14.4386
27.66	38.5562
27.88	16.454
28.1	21.692
28.32	3.82684
28.54	5.79321
28.76	4.31837
28.98	8.71207
29.2	8.10806
29.42	33.5657
29.64	0.123848
29.86	32.9004
30.08	21.8452
30.3	10.1493
30.52	11.6165
30.74	18.6845
30.96	22.318
31.18	24.4942
31.4	2.88748
31.62	3.73733
31.84	7.34863
32.06	7.89173
32.28	17.7232
32.5	8.08565
32.72	9.61563
32.94	36.8156
33.16	12.5444
33.38	7.59021
33.6	29.0841
33.82	25.1604
34.04	29.1199
34.26	5.70968
34.48	3.34133
34.7	12.6149
34.92	20.0991
35.14	10.8266
35.36	13.9719
35.58	8.88232
35.8	37.3887
36.02	27.1479
36.24	51.8251
36.46	20.1593
36.68	7.77314
36.9	13.5259
37.12	2.317
37.34	12.4372
37.56	8.56032
37.78	5.12433
38	27.4227
38.22	7.31541
38.44	10.644
38.66	15.9806
38.88	21.1012
39.1	24.4904
39.32	3.17856
39.54	23.3849
39.76	30.0266
39.98	30.9262
40.2	0.38961
40.42	14.8145
40.64	3.3532
40.86	31.6395
41.08	9.80759
41.3	7.43917
41.52	25.995
41.74	19.9038
41.96	26.7529
42.18	25.9609
42.4	21.4655
42.62	1.93494
42.84	15.5808
43.06	17.0471
43.28	3.18512
43.5	27.0524
43.72	12.0413
43.94	39.8545
44.16	0.966766
44.38	24.5636
44.6	13.3115
44.82	24.6617
45.04	1.90343
45.26	11.6227
45.48	21.5556
45.7	12.4161
45.92	7.50899
46.14	10.0937
46.36	8.66727
46.58	12.5866
46.8	31.3958
47.02	11.4464
47.24	29.6128
47.46	24.3377
47.68	19.9367
47.9	3.34342
48.12	0.128815
48.34	22.5864
48.56	30.8164
48.78	29.9059
49	18.8092
49.22	11.0776
49.44	19.2837
49.66	13.626
49.88	19.7386
50.1	13.2784
50.32	13.7136
50.54	3.68926
50.76	10.9306
50.98	24.3247
51.2	9.61533
51.42	3.73141
51.64	10.2736
51.86	33.1187
52.08	4.74934
52.3	35.1207
52.52	14.5326
52.74	5.88338
52.96	16.4178
53.18	8.87468
53.4	6.11847
53.62	24.5069
53.84	0.911324
54.06	20.3666
54.28	1.39853
54.5	17.0451
54.72	1.61244
54.94	24.7643
55.16	21.0059
55.38	18.7182
55.6	13.9992
55.82	20.3626
56.04	11.8221
56.26	15.2377
56.48	17.3654
56.7	20.0008
56.92	24.37
57.14	7.23077
57.36	6.09138
57.58	9.98142
57.8	9.30919
58.02	22.0493
58.24	8.60332
58.46	20.0701
58.68	9.14845
58.9	15.4366
59.12	29.0654
59.34	15.0041
59.56	14.8734
59.78	8.44975
60	12.0755
60.22	25.1588
60.44	34.6994
60.66	10.7607
60.88	0.076202
61.1	16.8575
61.32	7.27135
61.54	16.1899
61.76	0.803185
61.98	12.1355
62.2	1.15866
62.42	1.97739
62.64	31.8106
62.86	5.03854
63.08	0.87867
63.3	8.02374
63.52	8.49827
63.74	27.03
63.96	28.9665
64.18	2.89585
64.4	26.0309
64.62	27.0649
64.84	12.9756
65.06	0.924286
65.28	14.9141
65.5	15.7937
65.72	20.9546
65.94	7.31208
66.16	11.6457
66.38	26.1475
66.6	12.5424
66.82	0.198318
67.04	4.06463
67.26	14.3947
67.48	11.8762
67.7	19.9687
67.92	5.63236
68.14	6.02291
68.36	10.9725
68.58	12.2591
68.8	2.40929
69.02	24.3
69.24	16.6524
69.46	9.87435
69.68	0.184757
69.9	14.038
70.12	10.1552
70.34	3.3763
70.56	3.83977
70.78	5.67583
71	24.4019
71.22	5.95165
71.44	2.38573
71.66	12.0637
71.88	10.7324
72.1	3.15182
72.32	0.074467
72.54	14.5679
72.76	29.5624
72.98	3.4669
73.2	2.56329
73.42	15.7939
73.64	8.45498
73.86	12.9286
74.08	0.442631
74.3	5.46294
74.52	15.7951
74.74	5.19111
74.96	11.752
75.18	13.8295
75.4	6.11253
75.62	11.0597
75.84	3.06925
76.06	32.9998
76.28	13.3964
76.5	14.9792
76.72	18.7129
76.94	12.0901
77.16	3.93305
77.38	14.4107
77.6	19.5779
77.82	1.68399
78.04	3.63686
78.26	34.0234
78.48	11.7525
78.7	3.75882
78.92	18.7278
79.14	11.6247
79.36	12.4891
79.58	2.68972
79.8	5.62006
80.02	8.86809
80.24	16.672
80.46	11.3258
80.68	19.1206
80.9	0.564323
81.12	10.9634
81.34	5.13221
81.56	10.461
81.78	3.47817
82	11.6341
82.22	27.4079
82.44	19.51
82.66	10.7808
82.88	24.6471
83.1	7.94227
83.32	2.86256
83.54	17.6338
83.76	5.39824
83.98	10.3636
84.2	19.8375
84.42	20.4272
84.64	18.3385
84.86	23.4498
85.08	26.7285
85.3	10.4224
85.52	14.9886
85.74	1.05293
85.96	22.7928
86.18	8.02158
86.4	5.0849
86.62	9.78181
86.84	4.92743
87.06	13.2417
87.28	0.339333
87.5	1.03061
87.72	4.55354
87.94	19.141
88.16	3.7674
88.38	24.4847
88.6	15.2674
88.82	17.7188
89.04	15.9771
89.26	21.9776
89.48	19.9021
89.7	14.9182
89.92	23.4796
