Measurement: Powder, Xray Data XY Processed
Mineral: Vanadinite
Rruff sample: R050376
Ideal chemistry: Pb^2+^_5_(V^5+^O_4_)_3_Cl
Locality: Morocco
Source: Eugene Schlepp
Description: Red hoppered crystal
Diffraction sample description: Powder
Measured chemistry: Pb_5.00_(V_1.00_O_4_)_3_Cl_1.00_
Cell parameters: a: 10.3254(2) b: 10.3254(2) c: 7.3440(4) alpha: 90. beta: 90. gamma: 120. volume: 678.07(4) crystal system: hexagonal
x	intensity
5	0
5.22	7.50526
5.44	4.9972
5.66	2.67945
5.88	4.67492
6.1	17.8734
6.32	21.1814
6.54	8.41393
6.76	11.2616
6.98	8.68078
7.2	9.04797
7.42	9.40894
7.64	5.7161
7.86	3.97615
8.08	2.00791
8.3	5.01089
8.52	10.9624
8.74	5.72396
8.96	5.34341
9.18	1.6063
9.4	4.36853
9.62	10.1381
9.84	19.9465
10.06	3.72002
10.28	7.78331
10.5	8.97037
10.72	4.16274
10.94	4.34942
11.16	4.40651
11.38	5.67775
11.6	6.89573
11.82	4.1517
12.04	3.4415
12.26	5.64348
12.48	1.80408
12.7	0.622942
12.92	3.6924
13.14	1.59375
13.36	10.5235
13.58	5.59346
13.8	5.42763
14.02	8.58968
14.24	5.53971
14.46	1.56059
14.68	5.52574
14.9	3.64851
15.12	3.64556
15.34	5.67864
15.56	10.7366
15.78	4.66753
16	4.53743
16.22	1.48466
16.44	3.41089
16.66	7.12845
16.88	2.04732
17.1	4.12987
17.32	1.91519
17.54	5.09391
17.76	1.10063
17.98	5.95419
18.2	0.854315
18.42	1.72667
18.64	0.438951
18.86	1.16985
19.08	3.09146
19.3	9.97194
19.52	2.69126
19.74	5.31246
19.96	43.9993
20.18	3.86549
20.4	0.039767
20.62	4.09075
20.84	5.43029
21.06	93.8048
21.28	12.0548
21.5	4.95024
21.72	3.25586
21.94	6.72482
22.16	9.87479
22.38	8.98597
22.6	2.16396
22.82	7.21886
23.04	5.22552
23.26	16.9646
23.48	3.77199
23.7	9.00774
23.92	4.94822
24.14	14.9291
24.36	11.5756
24.58	7.67471
24.8	4.48107
25.02	7.1677
25.24	2.74248
25.46	3.57344
25.68	3.42506
25.9	5.10613
26.12	26.9115
26.34	118.093
26.56	21.5426
26.78	6.78294
27	3.60701
27.22	0.862549
27.44	2.97435
27.66	0.421596
27.88	6.02047
28.1	3.33817
28.32	5.63841
28.54	7.82427
28.76	9.65736
28.98	44.2676
29.2	178.386
29.42	16.2896
29.64	30.1853
29.86	308.561
30.08	143.74
30.3	21.3558
30.52	4.09955
30.74	6.98483
30.96	0.867157
31.18	3.17566
31.4	1.57634
31.62	6.2876
31.84	7.41166
32.06	5.8888
32.28	5.1054
32.5	5.612
32.72	8.05676
32.94	7.35037
33.16	5.38723
33.38	0.618336
33.6	5.32501
33.82	4.37568
34.04	3.33851
34.26	3.47161
34.48	0.055114
34.7	4.11371
34.92	5.13034
35.14	3.93592
35.36	1.9134
35.58	2.1031
35.8	2.18886
36.02	9.26806
36.24	2.29032
36.46	7.51108
36.68	5.56343
36.9	6.74458
37.12	2.5801
37.34	4.57089
37.56	9.50929
37.78	2.20799
38	2.1481
38.22	9.302
38.44	10.4428
38.66	2.26619
38.88	6.0421
39.1	8.05182
39.32	2.31963
39.54	6.46211
39.76	1.29898
39.98	0.14724
40.2	3.11783
40.42	22.0252
40.64	8.70267
40.86	27.9178
41.08	6.85154
41.3	4.78035
41.52	4.55713
41.74	1.5673
41.96	6.3
42.18	2.09809
42.4	7.07969
42.62	11.9666
42.84	72.7435
43.06	17.5056
43.28	6.86129
43.5	6.70722
43.72	2.70196
43.94	11.2118
44.16	39.3507
44.38	4.08742
44.6	4.83559
44.82	3.18625
45.04	1.85742
45.26	3.42447
45.48	6.95265
45.7	42.4694
45.92	81.2669
46.14	30.8461
46.36	16.8919
46.58	38.4676
46.8	10.5798
47.02	8.90356
47.24	0.569394
47.46	21.3861
47.68	54.8893
47.9	19.0839
48.12	8.72883
48.34	5.12331
48.56	3.38296
48.78	1.86449
49	5.43354
49.22	6.92786
49.44	11.1433
49.66	26.2004
49.88	10.9556
50.1	1.87345
50.32	3.78924
50.54	1.82131
50.76	4.15226
50.98	8.45885
51.2	8.61711
51.42	6.53619
51.64	3.28623
51.86	0.886079
52.08	5.80057
52.3	5.49788
52.52	11.4055
52.74	2.1386
52.96	2.65822
53.18	9.11478
53.4	13.5052
53.62	1.15639
53.84	5.87633
54.06	8.78747
54.28	7.93859
54.5	9.21003
54.72	18.4989
54.94	13.7744
55.16	1.27433
55.38	4.93646
55.6	1.49499
55.82	11.7693
56.04	4.03665
56.26	3.23112
56.48	1.29248
56.7	9.26052
56.92	14.2041
57.14	25.3728
57.36	29.8575
57.58	15.1694
57.8	4.48642
58.02	6.91488
58.24	9.58016
58.46	4.24213
58.68	16.1668
58.9	50.0374
59.12	31.8073
59.34	33.8681
59.56	8.83748
59.78	2.28157
60	0.703745
60.22	4.48818
60.44	5.88001
60.66	9.41594
60.88	2.88288
61.1	4.03456
61.32	6.45049
61.54	4.73627
61.76	0.1181
61.98	10.6766
62.2	4.58244
62.42	2.37568
62.64	7.12244
62.86	8.03169
63.08	13.2655
63.3	0.6473
63.52	6.82395
63.74	4.66458
63.96	5.51525
64.18	6.30745
64.4	6.32829
64.62	5.35305
64.84	0.147062
65.06	4.87279
65.28	6.6368
65.5	1.98925
65.72	8.60769
65.94	3.17624
66.16	14.1545
66.38	7.03584
66.6	15.0153
66.82	10.681
67.04	10.2955
67.26	4.6686
67.48	5.46687
67.7	8.28352
67.92	11.0771
68.14	7.36246
68.36	11.0988
68.58	19.6977
68.8	22.3688
69.02	11.0616
69.24	2.02291
69.46	2.03109
69.68	20.4282
69.9	14.5809
70.12	25.9677
70.34	25.7712
70.56	35.7192
70.78	28.9572
71	8.4721
71.22	2.15515
71.44	5.26756
71.66	6.76121
71.88	6.23833
72.1	5.58402
72.32	10.797
72.54	13.7972
72.76	5.40028
72.98	6.51589
73.2	9.3564
73.42	20.2165
73.64	16.2642
73.86	4.56291
74.08	1.61007
74.3	4.72215
74.52	5.70585
74.74	6.69376
74.96	0.942318
75.18	5.45682
75.4	1.28693
75.62	3.26195
75.84	8.28012
76.06	3.04191
76.28	11.8953
76.5	10.7233
76.72	11.6437
76.94	10.1308
77.16	11.0407
77.38	3.69375
77.6	7.93217
77.82	11.8765
78.04	5.75554
78.26	3.53405
78.48	5.26505
78.7	2.98805
78.92	6.07266
79.14	10.6632
79.36	17.7526
79.58	5.34703
79.8	3.01397
80.02	5.78996
80.24	5.99299
80.46	13.895
80.68	14.3739
80.9	14.5782
81.12	16.8393
81.34	0.834035
81.56	3.23988
81.78	1.10044
82	3.60378
82.22	7.23882
82.44	5.66571
82.66	5.19641
82.88	5.43473
83.1	4.54566
83.32	1.26301
83.54	6.94501
83.76	2.09201
83.98	6.49122
84.2	7.33433
84.42	9.02817
84.64	3.70816
84.86	1.61894
85.08	0.639344
85.3	2.21258
85.52	13.3308
85.74	3.17764
85.96	6.90367
86.18	7.61242
86.4	1.08923
86.62	4.65954
86.84	3.39247
87.06	8.25425
87.28	8.96935
87.5	4.74434
87.72	7.7237
87.94	8.34624
88.16	2.86337
88.38	9.28819
88.6	6.15149
88.82	11.2961
89.04	6.48584
89.26	8.67402
89.48	12.71
89.7	11.0518
89.92	12.2952
