Measurement: Powder, Xray Data XY Processed
Mineral: Vanadinite
Rruff sample: R050530
Ideal chemistry: Pb^2+^_5_(V^5+^O_4_)_3_Cl
Locality: Hillsboro, Sierra County, New Mexico, USA
Source: University of Arizona Mineral Museum
Description: Yellow hexagonal prisms
Diffraction sample description: Powder
Measured chemistry: Pb_5.00_((V_0.93_As_0.07_)O_4_)_3_Cl_1.00_
Cell parameters: a: 10.3231(3) b: 10.3231(3) c: 7.3560(5) alpha: 90. beta: 90. gamma: 120. volume: 678.89(6) crystal system: hexagonal
x	intensity
5	0
5.22	10.697
5.44	7.924
5.66	13.003
5.88	16.375
6.1	8.89
6.32	12.8
6.54	13.567
6.76	2.216
6.98	11.928
7.2	3.83
7.42	1.506
7.64	3.839
7.86	8.721
8.08	9.109
8.3	2.528
8.52	1.772
8.74	6.594
8.96	1.618
9.18	7.364
9.4	8.33
9.62	6.33
9.84	5.313
10.06	0.311
10.28	2.349
10.5	0.66
10.72	0.802
10.94	5.907
11.16	7.218
11.38	4.473
11.6	1.724
11.82	3.021
12.04	3.996
12.26	5.16
12.48	8.402
12.7	0.495
12.92	8.397
13.14	6.662
13.36	4.724
13.58	3.613
13.8	0.628
14.02	5.471
14.24	1.605
14.46	4.366
14.68	3.44
14.9	4.304
15.12	2.28
15.34	8.336
15.56	2.481
15.78	9.447
16	2.442
16.22	5.381
16.44	0.402
16.66	1.417
16.88	1.461
17.1	8.343
17.32	3.543
17.54	3.592
17.76	1.469
17.98	1.221
18.2	3.26
18.42	6.216
18.64	3.199
18.86	4.021
19.08	2.223
19.3	4.584
19.52	4.649
19.74	6.295
19.96	35.104
20.18	2.005
20.4	1.794
20.62	0.708
20.84	0.258
21.06	71.853
21.28	9.162
21.5	3.271
21.72	4.542
21.94	0.742
22.16	4.796
22.38	5.969
22.6	1.044
22.82	5.075
23.04	5.159
23.26	5.962
23.48	1.835
23.7	1.673
23.92	4.832
24.14	12.519
24.36	7.439
24.58	10.435
24.8	0.514
25.02	3.414
25.24	5.294
25.46	7.149
25.68	0.065
25.9	5.006
26.12	13.985
26.34	47.87
26.56	27.098
26.78	10.01
27	13.302
27.22	2.048
27.44	1.117
27.66	3.856
27.88	6.509
28.1	2.099
28.32	0.611
28.54	0.104
28.76	13.42
28.98	28.621
29.2	183.979
29.42	12.446
29.64	8.37
29.86	223.451
30.08	124.602
30.3	12.04
30.52	2.38
30.74	0.946
30.96	0.49
31.18	1.064
31.4	3.552
31.62	3.251
31.84	1.83
32.06	3.085
32.28	1.229
32.5	12.424
32.72	7.558
32.94	4.805
33.16	2.886
33.38	5.047
33.6	6.052
33.82	8.231
34.04	3.161
34.26	2.171
34.48	3.211
34.7	7.092
34.92	8.065
35.14	1.912
35.36	3.263
35.58	2.37
35.8	2.368
36.02	7.548
36.24	4.461
36.46	4.476
36.68	4.499
36.9	0.529
37.12	0.449
37.34	2.407
37.56	1.514
37.78	6.148
38	8.994
38.22	6.209
38.44	10.005
38.66	3.886
38.88	10.928
39.1	5.598
39.32	3.474
39.54	3.307
39.76	0.139
39.98	0.057
40.2	0.23
40.42	16.745
40.64	9.34
40.86	15.244
41.08	9.228
41.3	2.063
41.52	0.058
41.74	9.854
41.96	2.789
42.18	1.826
42.4	2.741
42.62	2.954
42.84	104.896
43.06	17.803
43.28	4.703
43.5	6.395
43.72	0.837
43.94	13.245
44.16	46.127
44.38	16.066
44.6	5.796
44.82	2.374
45.04	4.969
45.26	3.764
45.48	1.5
45.7	35.246
45.92	52.201
46.14	22.835
46.36	10.571
46.58	66.562
46.8	19.568
47.02	1.175
47.24	0.984
47.46	2.336
47.68	34.879
47.9	7.433
48.12	3.766
48.34	5.636
48.56	7.405
48.78	1.635
49	9.903
49.22	3.039
49.44	11.008
49.66	24.254
49.88	4.522
50.1	4.265
50.32	5.156
50.54	2.269
50.76	2.466
50.98	1.727
51.2	7
51.42	14.066
51.64	1.226
51.86	0.786
52.08	3.063
52.3	9.715
52.52	10.975
52.74	9.75
52.96	6.682
53.18	11.401
53.4	6.054
53.62	3.559
53.84	3.401
54.06	6.136
54.28	11.065
54.5	10.401
54.72	14.408
54.94	4.311
55.16	4.404
55.38	4.682
55.6	0.996
55.82	6.072
56.04	5.158
56.26	8.241
56.48	2.265
56.7	3.203
56.92	11.763
57.14	8.255
57.36	29.123
57.58	9.862
57.8	10.35
58.02	4.175
58.24	0.099
58.46	7.967
58.68	17.861
58.9	38.854
59.12	35.158
59.34	31.152
59.56	9.743
59.78	7.779
60	3.11
60.22	1.529
60.44	3.902
60.66	7.121
60.88	1.377
61.1	4.675
61.32	4.146
61.54	6.161
61.76	6.175
61.98	8.271
62.2	10.339
62.42	3.235
62.64	7.052
62.86	4.809
63.08	4.887
63.3	8.176
63.52	3.114
63.74	8.678
63.96	8.455
64.18	3.332
64.4	1.306
64.62	1.135
64.84	5.977
65.06	2.862
65.28	9.687
65.5	10.307
65.72	0.798
65.94	7.672
66.16	1.734
66.38	13.656
66.6	11.749
66.82	10.447
67.04	0.285
67.26	1.351
67.48	1.262
67.7	4.08
67.92	3.883
68.14	5.88
68.36	4.743
68.58	5.503
68.8	13.196
69.02	9.8
69.24	2.707
69.46	13.641
69.68	9.339
69.9	15.395
70.12	15.717
70.34	43.943
70.56	38.101
70.78	12.631
71	5.031
71.22	2.329
71.44	3.207
71.66	0.655
71.88	3.975
72.1	3.224
72.32	10.308
72.54	0.756
72.76	4.318
72.98	3.392
73.2	1.976
73.42	10.863
73.64	3.652
73.86	4.692
74.08	0.566
74.3	4.786
74.52	5.975
74.74	4.997
74.96	2.017
75.18	4.244
75.4	2.231
75.62	6.244
75.84	3.185
76.06	5.197
76.28	6.95
76.5	4.924
76.72	7.249
76.94	8.131
77.16	10.224
77.38	11.081
77.6	3.052
77.82	5.044
78.04	0.838
78.26	2.596
78.48	2.304
78.7	5.998
78.92	9.636
79.14	3.008
79.36	11.622
79.58	4.174
79.8	7.872
80.02	7.684
80.24	2.771
80.46	5.834
80.68	19.113
80.9	5.47
81.12	0.847
81.34	10.078
81.56	4.638
81.78	1.357
82	4.853
82.22	4.207
82.44	1.527
82.66	2.438
82.88	3.614
83.1	3.621
83.32	1.517
83.54	3.616
83.76	3.698
83.98	8.545
84.2	1.237
84.42	2.15
84.64	0.158
84.86	1.163
85.08	2.253
85.3	4.288
85.52	6.167
85.74	1.413
85.96	6.255
86.18	12.158
86.4	0.059
86.62	4.65
86.84	2.757
87.06	9.524
87.28	9.37
87.5	13.078
87.72	3.938
87.94	4.379
88.16	13.134
88.38	6.038
88.6	6.821
88.82	6.637
89.04	4.487
89.26	3.584
89.48	7.838
89.7	10.834
89.92	4.879
