Measurement: Powder, Xray Data XY Processed
Mineral: Vayrynenite
Rruff sample: R050243
Ideal chemistry: Mn^2+^Be(PO_4_)OH
Locality: Viitaniemi pegmatite, Erajarvi, Orivesi, Finland
Source: Marcus Origlieri
Description: Pink massive with defined cleavage planes
Diffraction sample description: Powder
Measured chemistry: (Mn^2+^_0.95_Fe^2+^_0.05_)_Σ=1_Be_1.00_(P_1.00_O_4_)((OH)_0.94_F_0.06_)_Σ=1_ ; Be not measured but estimated by difference and charge balance.
Cell parameters: a: 5.4153(6) b: 14.5376(4) c: 4.7154(4) alpha: 90 beta: 102.752(8) gamma: 90 volume: 362.06(4) crystal system: monoclinic
x	intensity
5	0
5.22	13.2028
5.44	14.938
5.66	18.594
5.88	17.2639
6.1	17.3689
6.32	20.9427
6.54	21.7498
6.76	12.8158
6.98	14.9209
7.2	32.0052
7.42	4.67083
7.64	9.56093
7.86	9.96073
8.08	1.34783
8.3	16.8669
8.52	13.8033
8.74	11.9461
8.96	2.11591
9.18	6.19332
9.4	20.191
9.62	22.9776
9.84	9.1765
10.06	5.0761
10.28	17.4861
10.5	5.56836
10.72	7.21207
10.94	8.49014
11.16	1.09258
11.38	5.65356
11.6	19.2795
11.82	14.8484
12.04	37.1425
12.26	102.981
12.48	19.0393
12.7	15.1777
12.92	3.9523
13.14	19.4126
13.36	11.8522
13.58	26.1668
13.8	10.7345
14.02	16.537
14.24	17.6316
14.46	13.1514
14.68	13.294
14.9	23.0317
15.12	19.3616
15.34	27.5387
15.56	7.97817
15.78	20.8143
16	8.78556
16.22	18.1038
16.44	6.991
16.66	17.878
16.88	5.81113
17.1	2.84651
17.32	5.04397
17.54	11.4091
17.76	34.657
17.98	2.835
18.2	21.4686
18.42	10.2052
18.64	1.41195
18.86	26.7646
19.08	7.04011
19.3	67.9126
19.52	14.719
19.74	17.858
19.96	21.1801
20.18	29.327
20.4	14.3225
20.62	29.4016
20.84	12.816
21.06	3.09038
21.28	9.23162
21.5	10.9751
21.72	11.0372
21.94	16.1515
22.16	19.9821
22.38	16.4266
22.6	3.88195
22.82	30.9291
23.04	11.3773
23.26	21.9221
23.48	10.746
23.7	20.2035
23.92	9.5741
24.14	15.1801
24.36	1.96988
24.58	20.5935
24.8	18.8082
25.02	4.18112
25.24	3.85117
25.46	1.03323
25.68	31.106
25.9	74.8082
26.12	1.23282
26.34	22.3324
26.56	31.7604
26.78	35.1231
27	6.35541
27.22	6.0657
27.44	27.4618
27.66	11.5736
27.88	8.72269
28.1	22.2099
28.32	2.31499
28.54	0.252876
28.76	4.45566
28.98	17.2014
29.2	24.1616
29.42	25.0724
29.64	8.45053
29.86	35.1853
30.08	1.00985
30.3	14.8935
30.52	4.34872
30.74	23.1026
30.96	72.8259
31.18	14.1509
31.4	110.389
31.62	12.8887
31.84	13.485
32.06	22.3462
32.28	10.0983
32.5	9.35144
32.72	8.61742
32.94	4.96094
33.16	9.43098
33.38	1.27009
33.6	101.996
33.82	19.3761
34.04	61.4538
34.26	14.2944
34.48	22.5446
34.7	10.5833
34.92	20.7409
35.14	13.8441
35.36	23.6505
35.58	18.9759
35.8	6.32604
36.02	5.05762
36.24	19.5833
36.46	4.59435
36.68	7.63665
36.9	20.8601
37.12	85.1408
37.34	6.33787
37.56	21.9665
37.78	11.168
38	24.1026
38.22	6.23825
38.44	5.10644
38.66	8.61679
38.88	9.23588
39.1	23.0203
39.32	4.43229
39.54	31.7958
39.76	16.6455
39.98	23.6496
40.2	12.768
40.42	2.30721
40.64	15.5426
40.86	12.6384
41.08	40.7325
41.3	1.04381
41.52	4.53604
41.74	13.3768
41.96	1.924
42.18	18.8772
42.4	19.1883
42.62	20.1564
42.84	18.7388
43.06	19.1019
43.28	12.1157
43.5	19.5336
43.72	16.7448
43.94	35.456
44.16	27.1
44.38	26.321
44.6	20.7449
44.82	4.09519
45.04	12.9479
45.26	14.8275
45.48	17.1435
45.7	2.94435
45.92	5.66448
46.14	18.2578
46.36	50.4421
46.58	13.9711
46.8	43.6106
47.02	17.1026
47.24	7.56309
47.46	22.0047
47.68	14.2397
47.9	14.5351
48.12	18.6548
48.34	17.3659
48.56	14.6355
48.78	26.6306
49	23.5208
49.22	18.514
49.44	28.5943
49.66	27.7845
49.88	32.9615
50.1	30.0322
50.32	29.2271
50.54	42.7149
50.76	31.8654
50.98	19.706
51.2	14.335
51.42	29.1837
51.64	13.7894
51.86	6.04425
52.08	10.7204
52.3	10.268
52.52	12.2544
52.74	15.6725
52.96	26.3626
53.18	35.3358
53.4	8.54145
53.62	7.82721
53.84	10.2945
54.06	12.9452
54.28	11.6503
54.5	5.1555
54.72	15.731
54.94	18.1993
55.16	13.8482
55.38	23.0021
55.6	12.9257
55.82	3.83012
56.04	11.4486
56.26	13.2855
56.48	20.2321
56.7	12.355
56.92	9.41886
57.14	8.38429
57.36	14.1511
57.58	6.94355
57.8	15.605
58.02	3.58165
58.24	18.4857
58.46	9.19291
58.68	19.781
58.9	113.864
59.12	27.0002
59.34	24.0613
59.56	5.25798
59.78	10.101
60	34.6734
60.22	7.46965
60.44	0.548119
60.66	32.2434
60.88	27.6847
61.1	12.0957
61.32	23.5116
61.54	12.4162
61.76	20.0594
61.98	12.8024
62.2	12.6913
62.42	9.74768
62.64	3.05527
62.86	6.42919
63.08	22.9388
63.3	5.81206
63.52	7.06987
63.74	37.7814
63.96	7.53627
64.18	16.8431
64.4	19.8859
64.62	7.7678
64.84	9.58316
65.06	14.5051
65.28	25.3646
65.5	97.991
65.72	36.4945
65.94	2.36132
66.16	14.6871
66.38	17.7025
66.6	5.4841
66.82	6.09711
67.04	2.31709
67.26	7.09068
67.48	17.4337
67.7	38.4973
67.92	8.79271
68.14	7.52822
68.36	24.8276
68.58	18.0116
68.8	21.5793
69.02	3.2601
69.24	2.11286
69.46	15.421
69.68	22.2271
69.9	15.6379
70.12	20.064
70.34	14.7437
70.56	4.00986
70.78	7.68483
71	11.1659
71.22	14.6118
71.44	12.314
71.66	0.759663
71.88	6.78613
72.1	34.6073
72.32	8.48726
72.54	26.3722
72.76	14.8486
72.98	16.2464
73.2	16.4409
73.42	11.3717
73.64	2.10168
73.86	19.1835
74.08	3.38981
74.3	25.7847
74.52	10.9823
74.74	10.5904
74.96	16.8538
75.18	12.182
75.4	17.0535
75.62	15.0501
75.84	18.9968
76.06	16.7685
76.28	18.9241
76.5	2.8011
76.72	14.9147
76.94	18.523
77.16	12.2635
77.38	1.0773
77.6	24.5874
77.82	4.19975
78.04	11.8417
78.26	14.6142
78.48	0.957027
78.7	10.2906
78.92	15.6125
79.14	1.56931
79.36	21.3456
79.58	11.293
79.8	2.2297
80.02	3.62307
80.24	41.5431
80.46	24.2241
80.68	6.52331
80.9	11.1045
81.12	8.97738
81.34	31.9496
81.56	4.93815
81.78	33.7193
82	22.1837
82.22	3.72384
82.44	9.91554
82.66	0.934128
82.88	12.1994
83.1	10.4808
83.32	7.31295
83.54	5.85519
83.76	20.0721
83.98	4.75331
84.2	4.68438
84.42	19.6633
84.64	10.1593
84.86	6.13786
85.08	16.6701
85.3	13.6964
85.52	3.65336
85.74	7.54305
85.96	24.4556
86.18	9.63699
86.4	16.8583
86.62	3.30154
86.84	16.0453
87.06	8.28468
87.28	7.9028
87.5	16.8403
87.72	16.2595
87.94	7.59577
88.16	7.85382
88.38	7.21014
88.6	14.1894
88.82	16.2006
89.04	17.7318
89.26	11.0761
89.48	8.38313
89.7	17.4114
89.92	8.36565
