Measurement: Powder, Xray Data XY Processed
Mineral: Vayrynenite
Rruff sample: R050590
Ideal chemistry: Mn^2+^Be(PO_4_)OH
Locality: Shengus, Pakistan
Source: Wayne Thompson
Description: Pinkish brown fragment
Diffraction sample description: Powder
Measured chemistry: (Mn^2+^_0.91_Fe^2+^_0.04_[box]_0.05_)Be(PO_4_)(OH_0.90_F_0.10_)
Cell parameters: a: 5.4160(9) b: 14.544(2) c: 4.7179(4) alpha: 90 beta: 102.74(1) gamma: 90 volume: 362.49(6) crystal system: monoclinic
x	intensity
5	0
5.22	13.9033
5.44	3.96972
5.66	24.3342
5.88	11.9338
6.1	11.9726
6.32	6.74847
6.54	8.36311
6.76	20.2788
6.98	32.0173
7.2	10.419
7.42	12.9659
7.64	14.4409
7.86	32.2458
8.08	8.97508
8.3	7.71429
8.52	3.5748
8.74	11.0349
8.96	3.17772
9.18	19.5361
9.4	5.79973
9.62	20.1044
9.84	36.0695
10.06	15.8966
10.28	8.89148
10.5	7.51341
10.72	15.5002
10.94	36.9773
11.16	11.2815
11.38	16.0811
11.6	8.49119
11.82	10.6822
12.04	41.0522
12.26	109.899
12.48	6.99591
12.7	18.0087
12.92	10.4248
13.14	13.9999
13.36	29.2803
13.58	15.2053
13.8	24.4734
14.02	16.6657
14.24	10.5684
14.46	22.1154
14.68	11.5278
14.9	6.42708
15.12	22.3255
15.34	18.9483
15.56	12.9693
15.78	19.6312
16	13.2381
16.22	20.1392
16.44	21.5951
16.66	11.7997
16.88	5.79169
17.1	15.5407
17.32	10.6107
17.54	12.723
17.76	1.67528
17.98	21.0633
18.2	8.47582
18.42	20.0671
18.64	9.26649
18.86	22.5857
19.08	14.5446
19.3	178.284
19.52	6.26676
19.74	9.69288
19.96	14.7762
20.18	20.466
20.4	21.8711
20.62	7.4551
20.84	8.52345
21.06	5.87592
21.28	12.7507
21.5	15.476
21.72	13.8388
21.94	9.91157
22.16	9.99359
22.38	17.9564
22.6	4.64484
22.82	26.9182
23.04	22.1399
23.26	42.1153
23.48	14.3218
23.7	16.6892
23.92	0.734886
24.14	11.7925
24.36	3.39617
24.58	2.45344
24.8	24.6143
25.02	28.6579
25.24	16.2314
25.46	16.9612
25.68	36.8109
25.9	62.3792
26.12	9.54319
26.34	17.9736
26.56	13.8895
26.78	36.7144
27	13.2452
27.22	18.6201
27.44	15.2431
27.66	15.3152
27.88	22.5595
28.1	13.0034
28.32	4.4478
28.54	0.404259
28.76	17.2623
28.98	22.539
29.2	11.8948
29.42	19.3547
29.64	18.8642
29.86	22.4184
30.08	10.9138
30.3	0.701286
30.52	17.5407
30.74	2.25263
30.96	53.9662
31.18	7.90022
31.4	40.9984
31.62	14.5094
31.84	20.4073
32.06	10.9929
32.28	16.8912
32.5	7.75716
32.72	4.59096
32.94	6.16556
33.16	5.27504
33.38	5.68468
33.6	44.4904
33.82	8.24486
34.04	30.4582
34.26	3.41672
34.48	0.289616
34.7	18.4703
34.92	6.99805
35.14	27.2276
35.36	19.5401
35.58	22.7021
35.8	8.49281
36.02	15.7054
36.24	6.01004
36.46	0.77692
36.68	32.2006
36.9	20.0149
37.12	49.6029
37.34	17.4786
37.56	7.75475
37.78	7.79252
38	1.19083
38.22	10.2204
38.44	2.07005
38.66	12.6391
38.88	6.39732
39.1	37.3183
39.32	11.2132
39.54	13.1241
39.76	20.8793
39.98	315.469
40.2	41.2197
40.42	0.088634
40.64	12.4636
40.86	20.3609
41.08	4.62823
41.3	6.78172
41.52	9.03308
41.74	21.6103
41.96	10.5882
42.18	21.284
42.4	16.2592
42.62	11.1495
42.84	29.1128
43.06	49.1901
43.28	9.6517
43.5	2.18135
43.72	28.706
43.94	48.585
44.16	13.959
44.38	11.8852
44.6	6.71918
44.82	20.7654
45.04	23.7281
45.26	15.6064
45.48	15.0848
45.7	10.4985
45.92	19.9799
46.14	8.99197
46.36	21.2716
46.58	19.8122
46.8	18.8126
47.02	13.8099
47.24	12.8451
47.46	13.8612
47.68	20.6594
47.9	10.1636
48.12	5.90653
48.34	12.1688
48.56	25.436
48.78	6.26839
49	17.8118
49.22	6.8005
49.44	28.7536
49.66	13.8818
49.88	6.74557
50.1	20.407
50.32	20.4329
50.54	6.69597
50.76	18.7345
50.98	10.6179
51.2	16.0562
51.42	11.4002
51.64	16.9903
51.86	17.002
52.08	20.2372
52.3	7.00036
52.52	22.9078
52.74	5.45057
52.96	19.9318
53.18	26.8418
53.4	13.9092
53.62	13.2392
53.84	18.0881
54.06	4.27332
54.28	28.4119
54.5	15.0815
54.72	13.2292
54.94	25.7289
55.16	28.5014
55.38	7.85784
55.6	0.185646
55.82	31.183
56.04	13.156
56.26	29.2363
56.48	8.00553
56.7	8.28159
56.92	5.94403
57.14	26.1922
57.36	10.757
57.58	13.8414
57.8	19.1357
58.02	7.51358
58.24	4.95625
58.46	0.261887
58.68	14.141
58.9	36.0931
59.12	11.5919
59.34	15.6797
59.56	11.8345
59.78	14.7259
60	1.8746
60.22	19.691
60.44	3.25031
60.66	35.4436
60.88	30.4798
61.1	15.5376
61.32	15.0574
61.54	6.28333
61.76	4.52195
61.98	37.7958
62.2	9.86199
62.42	14.7713
62.64	10.2549
62.86	10.4276
63.08	15.0194
63.3	23.7681
63.52	14.2991
63.74	11.1416
63.96	6.97877
64.18	29.8499
64.4	9.58192
64.62	6.55357
64.84	15.7481
65.06	18.42
65.28	20.9537
65.5	59.4916
65.72	5.91737
65.94	5.55242
66.16	28.4157
66.38	11.8237
66.6	15.0804
66.82	25.1834
67.04	18.2539
67.26	7.47553
67.48	27.4977
67.7	2.18634
67.92	12.5397
68.14	8.18323
68.36	12.1601
68.58	26.4492
68.8	40.5844
69.02	13.4662
69.24	0.504353
69.46	2.46127
69.68	9.07597
69.9	26.1373
70.12	23.7211
70.34	18.2917
70.56	22.0209
70.78	12.9755
71	12.4446
71.22	10.5114
71.44	22.6772
71.66	14.8337
71.88	27.361
72.1	9.27715
72.32	24.3372
72.54	24.8619
72.76	14.8017
72.98	23.8433
73.2	11.8194
73.42	0.036694
73.64	12.7705
73.86	9.25736
74.08	30.1371
74.3	1.95916
74.52	8.72113
74.74	18.1051
74.96	14.6801
75.18	0.35796
75.4	15.3311
75.62	5.49196
75.84	0.560165
76.06	12.8759
76.28	15.5251
76.5	12.749
76.72	22.7342
76.94	6.26525
77.16	9.96296
77.38	11.8464
77.6	18.9625
77.82	17.4655
78.04	16.369
78.26	18.0174
78.48	6.02546
78.7	25.7088
78.92	1.06793
79.14	3.85259
79.36	19.9817
79.58	4.71138
79.8	13.5561
80.02	9.29041
80.24	10.2439
80.46	16.2801
80.68	4.48872
80.9	14.6868
81.12	18.0219
81.34	4.1646
81.56	11.4851
81.78	22.4375
82	11.8974
82.22	27.5677
82.44	15.8297
82.66	14.5933
82.88	4.63632
83.1	2.32626
83.32	20.9006
83.54	29.359
83.76	9.65145
83.98	29.1517
84.2	27.5836
84.42	8.35226
84.64	10.1308
84.86	9.21795
85.08	34.1982
85.3	11.0476
85.52	5.48935
85.74	64.4681
85.96	26.4792
86.18	2.23553
86.4	7.66892
86.62	10.83
86.84	22.6664
87.06	39.1557
87.28	32.183
87.5	10.7383
87.72	10.6572
87.94	23.0669
88.16	32.7781
88.38	8.94154
88.6	5.92547
88.82	4.27261
89.04	33.9886
89.26	20.4628
89.48	5.30946
89.7	13.5148
89.92	17.0579
