Measurement: Powder, Xray Data XY Processed
Mineral: Vesuvianite
Rruff sample: R060532
Ideal chemistry: (Ca,Na)_19_(Al,Mg,Fe^3+^)_13_(SiO_4_)_10_(Si_2_O_7_)_4_(OH,F,O)_10_
Locality: Jeffrey mine, Asbestos, Quebec, Canada
Source: Michael Scott
Description: Green prismatic single crystal
Diffraction sample description: Powder
Cell parameters: a: 15.5299(4) b: 15.5299(4) c: 11.8137(6) alpha: 90 beta: 90 gamma: 90 volume: 2849.2(0) crystal system: tetragonal
x	intensity
5	0
5.22	8.21532
5.44	12.7001
5.66	10.3024
5.88	3.91466
6.1	5.60928
6.32	5.58851
6.54	8.59875
6.76	2.78527
6.98	11.5687
7.2	9.41225
7.42	3.43598
7.64	0.093924
7.86	2.23674
8.08	24.5224
8.3	1.02746
8.52	2.43212
8.74	10.7615
8.96	3.15749
9.18	0.513664
9.4	7.26898
9.62	3.67377
9.84	2.83473
10.06	2.16558
10.28	2.61915
10.5	1.40913
10.72	5.00478
10.94	4.17469
11.16	8.43786
11.38	4.62238
11.6	3.50073
11.82	7.32441
12.04	2.39986
12.26	7.47109
12.48	1.74035
12.7	7.7496
12.92	7.88467
13.14	1.74409
13.36	3.89584
13.58	7.9317
13.8	8.93932
14.02	8.0129
14.24	3.96423
14.46	3.15348
14.68	4.20843
14.9	6.1921
15.12	4.21112
15.34	3.26655
15.56	0.369621
15.78	3.34677
16	0.368494
16.22	18.5431
16.44	8.83489
16.66	0.975993
16.88	5.90456
17.1	6.79976
17.32	4.85681
17.54	2.06488
17.76	2.06466
17.98	1.12348
18.2	2.13413
18.42	5.12358
18.64	6.12568
18.86	6.00057
19.08	1.05256
19.3	3.16681
19.52	7.22846
19.74	7.23457
19.96	8.11489
20.18	4.18427
20.4	3.23491
20.62	2.28108
20.84	5.31665
21.06	0.802334
21.28	4.24636
21.5	5.13733
21.72	3.17657
21.94	1.08326
22.16	25.2489
22.38	3.32307
22.6	10.382
22.82	1.34339
23.04	7.48532
23.26	3.45019
23.48	3.62895
23.7	5.63189
23.92	7.62975
24.14	0.649743
24.36	8.61807
24.58	3.42407
24.8	2.34381
25.02	3.32673
25.24	1.30689
25.46	2.09596
25.68	36.0909
25.9	4.96783
26.12	3.89448
26.34	0.887862
26.56	9.74357
26.78	3.00652
27	6.08464
27.22	1.03777
27.44	3.012
27.66	8.02924
27.88	4.11446
28.1	11.9141
28.32	2.70126
28.54	3.6895
28.76	1.45024
28.98	3.36911
29.2	6.86941
29.42	22.7776
29.64	2.50926
29.86	23.3731
30.08	1.72842
30.3	70.0609
30.52	6.208
30.74	6.61056
30.96	2.46776
31.18	0.474857
31.4	6.40445
31.62	4.4352
31.84	4.33824
32.06	0.558173
32.28	0.392581
32.5	16.3343
32.72	103.26
32.94	2.23578
33.16	2.94495
33.38	0.032726
33.6	6.9208
33.82	6.92733
34.04	3.11241
34.26	4.13537
34.48	72.1562
34.7	74.4137
34.92	8.46602
35.14	6.63822
35.36	2.50481
35.58	6.50404
35.8	2.48104
36.02	4.48963
36.24	8.74047
36.46	5.71304
36.68	33.8342
36.9	16.6011
37.12	7.56036
37.34	4.54847
37.56	4.35866
37.78	3.3865
38	9.56377
38.22	4.67527
38.44	4.74442
38.66	1.5732
38.88	8.89779
39.1	2.91194
39.32	8.97539
39.54	2.25343
39.76	16.2468
39.98	2.23852
40.2	6.14543
40.42	7.8691
40.64	1.76045
40.86	2.59922
41.08	17.4521
41.3	2.91062
41.52	8.69259
41.74	0.753962
41.96	10.5468
42.18	5.5548
42.4	8.52563
42.62	6.65448
42.84	4.72275
43.06	6.79782
43.28	1.01816
43.5	7.09644
43.72	3.37454
43.94	4.53883
44.16	3.39907
44.38	0.290684
44.6	8.48117
44.82	11.9266
45.04	0.055164
45.26	13.199
45.48	16.4298
45.7	3.49823
45.92	0.38789
46.14	0.521459
46.36	2.55506
46.58	0.512575
46.8	2.38014
47.02	8.17055
47.24	1.80401
47.46	2.58878
47.68	1.58414
47.9	0.246531
48.12	2.48722
48.34	13.7813
48.56	0.706131
48.78	6.83554
49	0.132604
49.22	1.50679
49.44	3.85307
49.66	2.99814
49.88	11.1936
50.1	2.44004
50.32	1.5979
50.54	6.64939
50.76	9.42486
50.98	6.41569
51.2	3.39364
51.42	1.28497
51.64	1.20405
51.86	34.0123
52.08	4.97436
52.3	7.87615
52.52	5.75132
52.74	9.6189
52.96	5.4577
53.18	3.71952
53.4	10.7451
53.62	5.8006
53.84	1.87204
54.06	3.68946
54.28	0.341852
54.5	0.315712
54.72	7.77808
54.94	1.64032
55.16	15.5531
55.38	22.4391
55.6	4.09276
55.82	0.016212
56.04	2.96618
56.26	0.066885
56.48	6.97943
56.7	16.1098
56.92	17.0351
57.14	3.94297
57.36	7.97131
57.58	3.15277
57.8	1.07787
58.02	0.023863
58.24	13.878
58.46	0.676929
58.68	0.374717
58.9	14.0604
59.12	5.99959
59.34	5.96346
59.56	14.2774
59.78	4.04986
60	1.9965
60.22	12.1296
60.44	0.192002
60.66	1.32522
60.88	5.33169
61.1	2.38461
61.32	0.539239
61.54	5.57268
61.76	5.567
61.98	41.2736
62.2	2.56476
62.42	0.61049
62.64	1.86719
62.86	8.17263
63.08	1.24321
63.3	1.48403
63.52	12.6477
63.74	7.72762
63.96	1.09137
64.18	5.07968
64.4	5.19487
64.62	6.37945
64.84	7.35231
65.06	8.36802
65.28	1.49037
65.5	1.50363
65.72	11.5038
65.94	3.52851
66.16	0.413797
66.38	5.47896
66.6	7.28528
66.82	1.18501
67.04	4.89729
67.26	5.77523
67.48	3.56639
67.7	4.55853
67.92	2.46869
68.14	9.51088
68.36	5.42837
68.58	0.677131
68.8	4.39497
69.02	6.41145
69.24	0.466717
69.46	8.71936
69.68	6.88839
69.9	8.84291
70.12	3.78369
70.34	2.89393
70.56	3.04621
70.78	1.15991
71	5.25706
71.22	2.35383
71.44	2.5325
71.66	7.39429
71.88	6.08794
72.1	0.821083
72.32	7.71639
72.54	1.45042
72.76	6.40495
72.98	9.95621
73.2	11.6884
73.42	0.587604
73.64	1.3244
73.86	7.09654
74.08	7.08008
74.3	4.11183
74.52	5.23047
74.74	21.2697
74.96	2.58993
75.18	0.262582
75.4	0.955249
75.62	9.22594
75.84	2.30136
76.06	2.44124
76.28	1.68908
76.5	2.81911
76.72	0.100323
76.94	5.92328
77.16	0.985748
77.38	2.74718
77.6	4.72657
77.82	1.02476
78.04	0.868354
78.26	2.88781
78.48	3.88419
78.7	9.75558
78.92	2.71396
79.14	5.77261
79.36	3.94455
79.58	3.12307
79.8	0.157058
80.02	7.29853
80.24	3.03531
80.46	6.07772
80.68	2.14296
80.9	1.32448
81.12	7.30763
81.34	4.29215
81.56	4.36463
81.78	7.06653
82	5.07127
82.22	1.0078
82.44	1.02097
82.66	3.94708
82.88	4.09865
83.1	1.03018
83.32	5.77598
83.54	0.222539
83.76	5.79813
83.98	5.6559
84.2	4.78702
84.42	4.73786
84.64	4.71986
84.86	0.713281
85.08	1.64848
85.3	6.48226
85.52	0.573418
85.74	3.60352
85.96	1.56078
86.18	10.5279
86.4	1.63132
86.62	2.6625
86.84	7.65776
87.06	20.6371
87.28	9.52335
87.5	6.49716
87.72	6.33766
87.94	1.29781
88.16	3.23076
88.38	2.22079
88.6	3.22489
88.82	3.1538
89.04	0.007758
89.26	3.02319
89.48	5.25053
89.7	5.53423
89.92	0.788799
