Measurement: Powder, Xray Data XY Processed
Mineral: Vesuvianite
Rruff sample: R050233
Ideal chemistry: (Ca,Na)_19_(Al,Mg,Fe^3+^)_13_(SiO_4_)_10_(Si_2_O_7_)_4_(OH,F,O)_10_
Locality: Ludwig, Nevada, USA
Source: Marcus Origlieri
Description: Pale green euhedral single crystal
Diffraction sample description: Powder
Measured chemistry: Ca_19.00_(Al_10.04_Mg_2.54_Fe^2+^_0.42_)_Σ=13_(Si_17.96_Al_0.04_)_Σ=18_O_68_((OH)_9.66_F_0.34_)_Σ=10_ ; Boron not analyzed.
Cell parameters: a: 15.5584(4) b: 15.5584(4) c: 11.8298(4) alpha: 90. beta: 90. gamma: 90. volume: 2863.5(1) crystal system: tetragonal
x	intensity
5	0
5.22	10.4432
5.44	14.0963
5.66	11.4835
5.88	7.97026
6.1	9.57658
6.32	5.6264
6.54	6.43235
6.76	6.38957
6.98	3.29765
7.2	12.8965
7.42	15.3203
7.64	10.7191
7.86	0.749723
8.08	51.0237
8.3	0.284786
8.52	2.23034
8.74	15.7327
8.96	3.96409
9.18	7.62858
9.4	13.0207
9.62	11.8916
9.84	2.20804
10.06	10.5851
10.28	7.84284
10.5	8.77628
10.72	7.75792
10.94	1.17384
11.16	1.24307
11.38	9.47832
11.6	4.27666
11.82	10.356
12.04	6.44059
12.26	9.32074
12.48	14.396
12.7	5.29623
12.92	6.78746
13.14	4.97379
13.36	9.24645
13.58	7.94293
13.8	12.0815
14.02	2.22928
14.24	0.649353
14.46	0.914558
14.68	4.96874
14.9	4.85499
15.12	11.8805
15.34	4.37806
15.56	4.59326
15.78	9.7399
16	4.74713
16.22	9.00154
16.44	0.788114
16.66	1.13228
16.88	8.20484
17.1	5.41445
17.32	3.56526
17.54	7.81284
17.76	0.131537
17.98	4.92162
18.2	10.0919
18.42	4.34983
18.64	3.26388
18.86	31.2103
19.08	3.33572
19.3	4.20755
19.52	2.13204
19.74	2.17443
19.96	0.154321
20.18	5.12852
20.4	9.19414
20.62	2.07464
20.84	6.84922
21.06	2.74631
21.28	3.56462
21.5	8.46105
21.72	4.36993
21.94	9.22346
22.16	18.1251
22.38	8.05416
22.6	5.28412
22.82	3.12701
23.04	11.3521
23.26	5.39355
23.48	7.57245
23.7	1.34181
23.92	2.60071
24.14	5.95405
24.36	2.98753
24.58	6.90785
24.8	6.96531
25.02	5.83903
25.24	5.8725
25.46	6.67728
25.68	41.7764
25.9	5.76513
26.12	6.7782
26.34	4.73144
26.56	2.57986
26.78	6.68949
27	3.78647
27.22	6.2941
27.44	20.2615
27.66	3.06664
27.88	7.08559
28.1	7.73727
28.32	2.68985
28.54	4.9351
28.76	8.56829
28.98	6.14291
29.2	16.6739
29.42	16.3429
29.64	10.4393
29.86	24.3401
30.08	6.26879
30.3	85.1753
30.52	7.49535
30.74	49.6877
30.96	1.99266
31.18	0.867492
31.4	15.1876
31.62	1.26798
31.84	3.23611
32.06	6.37192
32.28	14.0509
32.5	663.847
32.72	17.1348
32.94	5.9561
33.16	0.094851
33.38	2.72289
33.6	22.7467
33.82	2.86694
34.04	1.91822
34.26	5.16151
34.48	76.2079
34.7	34.1471
34.92	5.39272
35.14	9.30313
35.36	14.1635
35.58	13.0824
35.8	8.19135
36.02	7.61088
36.24	1.2978
36.46	34.1491
36.68	19.1497
36.9	21.2687
37.12	2.3289
37.34	0.76236
37.56	0.847518
37.78	12.3991
38	22.371
38.22	16.3399
38.44	19.3301
38.66	35.2119
38.88	8.03775
39.1	4.957
39.32	2.05097
39.54	5.36215
39.76	3.29106
39.98	4.21348
40.2	7.86637
40.42	0.084758
40.64	2.85784
40.86	14.6202
41.08	22.4888
41.3	16.0964
41.52	1.99064
41.74	29.9309
41.96	3.8234
42.18	12.7852
42.4	32.7916
42.62	53.9418
42.84	1.29662
43.06	7.23001
43.28	11.2314
43.5	24.6288
43.72	10.7546
43.94	8.85172
44.16	4.44515
44.38	10.3535
44.6	16.5579
44.82	8.73668
45.04	33.9266
45.26	5.73202
45.48	23.6351
45.7	3.99343
45.92	4.69142
46.14	10.6704
46.36	17.5898
46.58	13.7349
46.8	8.69083
47.02	3.47458
47.24	8.99616
47.46	11.065
47.68	14.0645
47.9	11.1919
48.12	23.2536
48.34	17.4208
48.56	2.73239
48.78	8.08777
49	6.23839
49.22	7.4745
49.44	2.87121
49.66	4.07522
49.88	1.25364
50.1	5.47732
50.32	3.35766
50.54	4.37097
50.76	3.39693
50.98	10.218
51.2	1.05116
51.42	0.134815
51.64	8.1329
51.86	13.3071
52.08	6.49428
52.3	1.45016
52.52	1.50464
52.74	6.48233
52.96	1.5082
53.18	9.90594
53.4	6.92238
53.62	8.84928
53.84	7.65312
54.06	2.57526
54.28	4.07409
54.5	2.75879
54.72	29.9202
54.94	11.8108
55.16	80.6994
55.38	14.2756
55.6	7.7103
55.82	1.6957
56.04	3.98459
56.26	0.994916
56.48	77.1848
56.7	89.5529
56.92	15.8162
57.14	8.91096
57.36	4.07315
57.58	0.166021
57.8	2.35212
58.02	5.39652
58.24	6.38763
58.46	7.0635
58.68	9.32683
58.9	13.2083
59.12	17.8323
59.34	14.682
59.56	3.36481
59.78	8.00788
60	9.0225
60.22	8.81376
60.44	13.8494
60.66	78.7566
60.88	21.7119
61.1	1.3446
61.32	9.52616
61.54	7.65747
61.76	8.55035
61.98	14.7251
62.2	5.03712
62.42	0.790246
62.64	3.85641
62.86	6.11626
63.08	2.49842
63.3	0.807371
63.52	2.09878
63.74	0.168921
63.96	5.28054
64.18	1.55869
64.4	0.361596
64.62	3.65002
64.84	6.58455
65.06	2.47473
65.28	0.535662
65.5	7.44007
65.72	7.62629
65.94	5.88379
66.16	0.857851
66.38	7.83249
66.6	4.63701
66.82	2.7632
67.04	4.83603
67.26	3.35906
67.48	25.218
67.7	10.0648
67.92	5.8806
68.14	0.580588
68.36	18.8408
68.58	1.16149
68.8	8.67655
69.02	9.66505
69.24	3.5047
69.46	4.37731
69.68	7.44133
69.9	27.5112
70.12	0.675778
70.34	8.51602
70.56	1.93256
70.78	20.2663
71	10.3059
71.22	0.279073
71.44	1.89098
71.66	7.86194
71.88	3.82952
72.1	5.81823
72.32	0.163082
72.54	51.8021
72.76	43.0822
72.98	10.7676
73.2	3.49848
73.42	7.30263
73.64	0.809746
73.86	13.6467
74.08	10.5674
74.3	1.4255
74.52	11.6974
74.74	11.8203
74.96	6.08979
75.18	4.24272
75.4	7.80145
75.62	9.01363
75.84	3.41333
76.06	1.38278
76.28	2.97723
76.5	2.18287
76.72	5.23512
76.94	8.11599
77.16	8.71153
77.38	8.5495
77.6	4.5692
77.82	9.26198
78.04	2.06711
78.26	7.03139
78.48	2.18068
78.7	5.27533
78.92	3.62116
79.14	0.274314
79.36	11.8102
79.58	4.96468
79.8	3.08561
80.02	3.28123
80.24	3.34981
80.46	4.40716
80.68	4.71865
80.9	2.49564
81.12	0.420648
81.34	5.2844
81.56	1.47195
81.78	0.239551
82	4.79856
82.22	6.79742
82.44	5.61664
82.66	0.198919
82.88	6.02841
83.1	0.14863
83.32	8.93259
83.54	5.79844
83.76	12.7139
83.98	7.52512
84.2	4.2756
84.42	5.30244
84.64	1.28864
84.86	10.2829
85.08	2.26192
85.3	8.01043
85.52	5.02779
85.74	1.99655
85.96	6.99687
86.18	1.99165
86.4	1.12761
86.62	7.12418
86.84	4.96389
87.06	9.21468
87.28	0.108002
87.5	1.88518
87.72	10.8412
87.94	7.54801
88.16	1.36785
88.38	14.6236
88.6	13.7305
88.82	3.74289
89.04	12.6942
89.26	6.64138
89.48	7.97176
89.7	8.26948
89.92	2.02739
