Measurement: Powder, Xray Data XY Processed
Mineral: Vivianite
Rruff sample: R040185
Ideal chemistry: Fe^2+^_3_(PO_4_)_2_8H_2_O
Locality: Siglo XX mine, Llallagua, Bustillos, Potosi, Bolivia
Source: University of Arizona Mineral Museum
Description: Green acicular single crystal
Diffraction sample description: Powder
Measured chemistry: (Fe_1.00_Mn_0.01_)_3_(P_0.97_Si_0.03_O_3.94_F_0.07_)_2_Â·8H_2_O
Cell parameters: a: 10.147(1) b: 13.396(2) c: 4.6549(4) alpha: 90 beta: 104.94(2) gamma: 90 volume: 611.32(6) crystal system: monoclinic
x	intensity
4.76	0
5.21	11.7439
5.43	5.31386
5.65	13.8889
5.86	31.5951
6.08	34.4361
6.3	28.4098
6.52	24.6172
6.74	3.26186
6.96	17.5671
7.18	6.90282
7.4	13.8387
7.62	34.6183
7.84	16.6224
8.06	24.0463
8.28	14.7853
8.5	9.43442
8.72	11.0514
8.94	14.5112
9.16	13.6128
9.38	25.0847
9.6	20.4969
9.82	26.0307
10.04	23.6396
10.26	17.9215
10.48	20.7616
10.7	25.1365
10.92	39.8094
11.14	24.7164
11.36	49.1476
11.58	12.8123
11.8	18.5848
12.02	25.0413
12.24	29.3912
12.46	11.9581
12.68	0.48587
12.9	3.40091
13.12	74.3934
13.34	91.6099
13.56	20.0817
13.78	28.5835
14	4.87418
14.22	19.5372
14.44	10.1237
14.66	9.77119
14.88	9.14954
15.1	38.1735
15.32	25.9311
15.54	20.2866
15.76	29.5962
15.98	26.7765
16.2	42.5911
16.42	19.9505
16.64	11.5651
16.86	20.4254
17.08	26.0936
17.3	29.3664
17.53	1.03825
17.75	16.2331
17.97	40.3837
18.19	49.4001
18.41	17.7759
18.63	5.43185
18.85	17.6737
19.07	23.5592
19.29	35.2505
19.51	23.9132
19.73	33.1751
19.95	8.37514
20.17	38.181
20.39	30.5001
20.61	24.5328
20.83	31.4711
21.05	19.2018
21.27	15.2072
21.49	20.3008
21.71	12.8967
21.93	16.8403
22.15	30.1394
22.37	9.96405
22.59	13.0894
22.81	28.4477
23.03	50.6336
23.25	35.1397
23.47	16.9421
23.69	26.8368
23.91	16.1888
24.13	31.2146
24.35	22.7555
24.57	1.55554
24.79	2.44351
25.01	17.0777
25.23	3.81168
25.45	10.487
25.67	9.87205
25.89	0.899094
26.11	8.4449
26.33	17.3856
26.55	10.2727
26.77	30.3856
26.99	47.7865
27.21	6.90637
27.43	25.0246
27.65	3.6593
27.87	45.2375
28.09	50.8094
28.31	30.374
28.53	29.0317
28.75	20.2398
28.97	26.0539
29.19	29.4424
29.41	12.1924
29.63	15.5409
29.85	1.84883
30.07	50.5362
30.29	42.897
30.51	3.45721
30.73	26.4363
30.95	44.0876
31.17	2.108
31.39	38.8799
31.61	14.4399
31.83	1.642
32.05	3.3876
32.27	39.8178
32.49	32.1737
32.71	10.1723
32.93	43.7519
33.15	9.33759
33.37	35.3152
33.59	34.2983
33.81	12.9878
34.03	30.9412
34.25	1.90036
34.47	32.5135
34.69	16.1463
34.91	6.19232
35.13	15.7054
35.35	23.3429
35.57	31.2417
35.79	16.572
36.01	38.2606
36.23	22.9808
36.45	34.4305
36.67	12.666
36.89	7.64104
37.11	53.8444
37.33	7.18694
37.55	2.36023
37.77	25.4001
37.99	9.8001
38.21	19.1611
38.43	50.9357
38.65	19.7028
38.87	6.35579
39.09	39.1042
39.31	51.4672
39.53	54.0235
39.75	28.4112
39.97	21.6498
40.19	13.4951
40.41	21.0377
40.63	36.8747
40.85	18.6424
41.07	12.0598
41.29	10.8931
41.51	35.2479
41.73	16.7256
41.95	1.62628
42.17	23.5385
42.39	28.12
42.61	8.54645
42.83	2.85998
43.05	41.3416
43.27	50.2052
43.49	23.8588
43.71	8.37476
43.93	14.3187
44.15	24.7641
44.37	21.2969
44.59	13.8228
44.82	55.8791
45.04	8.53204
45.26	16.7624
45.48	13.2252
45.7	15.8287
45.92	17.4023
46.14	2.30141
46.36	11.2373
46.58	25.6112
46.8	0.32048
47.02	7.02344
47.24	20.5333
47.46	16.8346
47.68	2.38374
47.9	13.2791
48.12	26.5521
48.34	11.3957
48.56	5.18312
48.78	17.6155
49	37.6499
49.22	20.1818
49.44	6.80212
49.66	23.3883
49.88	28.2934
50.1	4.49129
50.32	41.3688
50.54	19.0363
50.76	38.26
50.98	14.361
51.2	45.5684
51.42	30.7955
51.64	6.38641
51.86	20.006
52.08	40.5538
52.3	25.2973
52.52	37.3831
52.74	37.8473
52.96	9.61565
53.18	34.8066
53.4	19.211
53.62	21.7724
53.84	29.1819
54.06	20.1676
54.28	42.3248
54.5	24.7554
54.72	20.6046
54.94	39.9827
55.16	35.0551
55.38	37.2189
55.6	27.7512
55.82	25.5384
56.04	19.9847
56.26	48.583
56.48	25.2147
56.7	26.5939
56.92	17.925
57.14	18.5814
57.36	10.7338
57.58	34.2311
57.8	10.5175
58.02	30.0182
58.24	22.8076
58.46	32.2541
58.68	7.35832
58.9	8.60703
59.12	22.4662
59.34	16.4767
59.56	22.1546
59.78	23.1306
60	11.1914
60.22	38.8222
60.44	21.2885
60.66	29.3024
60.88	12.6723
61.1	11.9921
61.32	4.33014
61.54	21.4283
61.76	22.9808
61.98	14.4756
62.2	37.1038
62.42	17.9824
62.64	12.262
62.86	16.3653
63.08	32.2274
63.3	11.0728
63.52	20.5348
63.74	46.6171
63.96	11.3814
64.18	17.0673
64.4	0.923996
64.62	32.9813
64.84	17.0779
65.06	14.8058
65.28	40.7185
65.5	7.79542
65.72	21.4053
65.94	6.95377
66.16	36.3367
66.38	9.81247
66.6	2.68312
66.82	19.1675
67.04	50.2931
67.26	31.2416
67.48	28.918
67.7	13.4354
67.92	7.98907
68.14	17.3328
68.36	21.6416
68.58	28.1203
68.8	27.8706
69.02	28.8715
69.24	19.6473
69.46	0.099457
69.68	7.76947
69.9	17.2594
70.12	17.3336
70.34	22.3953
70.56	25.7801
70.78	12.2517
71	6.29358
71.22	10.6314
71.44	15.1546
71.66	31.0259
71.88	7.06012
72.1	22.9855
72.32	19.6527
72.54	28.161
72.76	18.1332
72.98	20.5327
73.2	36.8462
73.42	23.5233
73.64	1.98163
73.86	42.2577
74.08	22.0299
74.3	47.5168
74.52	25.3313
74.74	22.8523
74.96	19.5499
75.18	31.4709
75.4	23.9653
75.62	34.56
75.84	26.0612
76.06	26.1464
76.28	7.76338
76.5	17.3881
76.72	33.6088
76.94	22.1557
77.16	18.247
77.38	30.7263
77.6	18.6386
77.82	34.2222
78.04	47.775
78.26	22.8581
78.48	21.9372
78.7	35.2728
78.92	22.9602
79.14	18.2992
79.36	24.0659
79.58	33.6522
79.8	2.68443
80.02	26.0453
80.24	11.7859
80.46	14.3739
80.68	24.4007
80.9	9.18184
81.12	8.71428
81.34	0.207642
81.56	6.73531
81.78	11.0312
82	24.2466
82.22	4.76779
82.44	0.684906
82.66	19.7031
82.88	20.5712
83.1	3.46622
83.32	13.4517
83.54	23.4989
83.76	8.70679
83.98	17.5512
84.2	4.47888
84.42	9.86975
84.64	15.777
84.86	8.16347
85.08	14.3333
85.3	2.85437
85.52	10.8657
85.75	10.2268
85.97	7.66447
86.19	13.7395
86.41	47.1817
86.63	22.9425
86.85	40.9972
87.07	12.4462
87.29	29.2576
87.51	23.4731
87.73	22.5876
87.95	33.9922
88.17	38.0767
88.39	12.9388
88.61	7.84293
88.83	28.7245
89.05	10.6164
89.27	49.7373
89.49	32.1006
89.71	33.9043
89.93	31.5166
