Measurement: Powder, Xray Data XY Processed
Mineral: Vivianite
Rruff sample: R050076
Ideal chemistry: Fe^2+^_3_(PO_4_)_2_8H_2_O
Locality: near Canutillos mine, Potosi, Saavedra, Bolivia
Source: Rock Currier
Description: Green prismatic and elongated single crystal
Diffraction sample description: Powder
Measured chemistry: (Fe^2+^_0.99_Mn_0.01_)_3_(P_1.00_O_4_)_2_Â·8H_2_O
Cell parameters: a: 10.129(2) b: 13.416(4) c: 4.681(3) alpha: 90. beta: 104.76(3) gamma: 90. volume: 615.2(3) crystal system: monoclinic
x	intensity
5	0
5.22	38.221
5.44	17.278
5.66	14.678
5.88	14.936
6.1	8.733
6.32	27.756
6.54	18.178
6.76	6.738
6.98	31.058
7.2	17.781
7.42	15.457
7.64	11.368
7.86	22.391
8.08	32.647
8.3	16.971
8.52	31.247
8.74	31.729
8.96	15.286
9.18	16.459
9.4	56.358
9.62	19.367
9.84	23.958
10.06	26.711
10.28	23.576
10.5	16.655
10.72	17.232
10.94	3.335
11.16	78.122
11.38	18.004
11.6	18.175
11.82	13.404
12.04	34.9
12.26	12.979
12.48	18.639
12.7	18.25
12.92	39.566
13.14	186.634
13.36	59.672
13.58	32.506
13.8	16.466
14.02	14.111
14.24	8.222
14.46	25.235
14.68	16.813
14.9	1.468
15.12	0.218
15.34	20.2
15.56	14.001
15.78	28.749
16	26.331
16.22	10.022
16.44	13.679
16.66	5.393
16.88	13.472
17.1	7.969
17.32	27.031
17.54	45.966
17.76	36.267
17.98	7.801
18.2	68.124
18.42	12.59
18.64	9.29
18.86	28.667
19.08	4.012
19.3	36.72
19.52	62.325
19.74	58.446
19.96	28.042
20.18	45.383
20.4	19.551
20.62	6.614
20.84	37.732
21.06	26.5
21.28	8.296
21.5	27.138
21.72	11.515
21.94	38.342
22.16	11.672
22.38	26.541
22.6	13.804
22.82	23.299
23.04	26.052
23.26	17.625
23.48	33.26
23.7	0.85
23.92	15.269
24.14	38.544
24.36	22.208
24.58	42.27
24.8	51.459
25.02	10.747
25.24	11.36
25.46	25.397
25.68	6.611
25.9	28.183
26.12	14.287
26.34	11.232
26.56	35.824
26.78	37.428
27	8.396
27.22	33.905
27.44	5.357
27.66	39.777
27.88	73.149
28.1	36.747
28.32	24.666
28.54	4.665
28.76	22.214
28.98	8.139
29.2	48.17
29.42	21.856
29.64	19.238
29.86	27.175
30.08	84.473
30.3	41.94
30.52	31.748
30.74	23.751
30.96	25.29
31.18	21.31
31.4	14.743
31.62	4.421
31.84	5.193
32.06	1.89
32.28	19.588
32.5	41.446
32.72	17.81
32.94	23.69
33.16	61.444
33.38	33.402
33.6	0.698
33.82	12.66
34.04	50.944
34.26	13.347
34.48	24.619
34.7	34.761
34.92	11.139
35.14	24.677
35.36	18.497
35.58	43.167
35.8	40.206
36.02	22.672
36.24	20.8
36.46	24.527
36.68	9.71
36.9	30.024
37.12	49.596
37.34	7.879
37.56	36.278
37.78	10.688
38	24.39
38.22	3.428
38.44	7.239
38.66	4.522
38.88	48.112
39.1	4.272
39.32	3.303
39.54	22.196
39.76	8.877
39.98	23.408
40.2	27.313
40.42	29.109
40.64	29.319
40.86	40.779
41.08	41.864
41.3	24.563
41.52	26.277
41.74	23.201
41.96	31.959
42.18	10.831
42.4	14.194
42.62	7.329
42.84	24.12
43.06	6.952
43.28	9.737
43.5	16.565
43.72	4.151
43.94	42.89
44.16	26.462
44.38	4.111
44.6	1.866
44.82	1.596
45.04	10.311
45.26	15.104
45.48	14.588
45.7	25.776
45.92	17.784
46.14	27.755
46.36	24.107
46.58	24.001
46.8	28.07
47.02	31.886
47.24	23.811
47.46	2.186
47.68	57.504
47.9	29.559
48.12	21.629
48.34	1.056
48.56	19.987
48.78	2.231
49	13.598
49.22	7.782
49.44	18.074
49.66	16.747
49.88	8.772
50.1	35.936
50.32	10.463
50.54	28.244
50.76	3.523
50.98	21.974
51.2	6.221
51.42	33.205
51.64	12.401
51.86	2.585
52.08	25.488
52.3	7.83
52.52	30.31
52.74	29.85
52.96	26.349
53.18	27.283
53.4	28.368
53.62	23.21
53.84	19.545
54.06	0.523
54.28	2.785
54.5	29.459
54.72	22.818
54.94	47.922
55.16	29.897
55.38	29.254
55.6	23.36
55.82	13.276
56.04	24.67
56.26	16.448
56.48	6.373
56.7	27.682
56.92	10.701
57.14	9.026
57.36	11.953
57.58	15.981
57.8	2.346
58.02	16.662
58.24	21.546
58.46	32.526
58.68	30.283
58.9	14.041
59.12	9.245
59.34	5.527
59.56	10.247
59.78	17.206
60	25.646
60.22	29.281
60.44	34.74
60.66	26.076
60.88	0.025
61.1	28.538
61.32	44.507
61.54	21.415
61.76	31.924
61.98	35.231
62.2	21.223
62.42	32.704
62.64	0.495
62.86	34.013
63.08	11.91
63.3	19.341
63.52	21.889
63.74	29.33
63.96	17.365
64.18	16.875
64.4	22.532
64.62	7.904
64.84	28.577
65.06	22.614
65.28	30.986
65.5	23.164
65.72	27.061
65.94	16.927
66.16	21.728
66.38	24.355
66.6	16.64
66.82	27.823
67.04	14.217
67.26	20.495
67.48	25.681
67.7	38.856
67.92	7.52
68.14	24.01
68.36	7.458
68.58	6.797
68.8	10.041
69.02	6.15
69.24	21.208
69.46	12.216
69.68	15.4
69.9	23.486
70.12	41.46
70.34	26.723
70.56	41.093
70.78	8.575
71	25.793
71.22	5.6
71.44	20.091
71.66	12.891
71.88	5.389
72.1	19.857
72.32	10.754
72.54	31.897
72.76	8.46
72.98	13.928
73.2	16.446
73.42	7.693
73.64	17.428
73.86	8.278
74.08	18.572
74.3	22.056
74.52	29.505
74.74	15.424
74.96	12.917
75.18	0.988
75.4	16.072
75.62	13.308
75.84	10.567
76.06	21.802
76.28	28.915
76.5	21.194
76.72	16.816
76.94	11.653
77.16	11.691
77.38	40.77
77.6	14.763
77.82	21.655
78.04	19.74
78.26	1.024
78.48	29.171
78.7	22.038
78.92	18.796
79.14	12.993
79.36	34.733
79.58	34.788
79.8	34.708
80.02	24.901
80.24	17.581
80.46	29.311
80.68	18.613
80.9	22.827
81.12	8.62
81.34	14.805
81.56	0.849
81.78	19.082
82	24.47
82.22	7.035
82.44	0.759
82.66	24.045
82.88	15.86
83.1	34.805
83.32	43.693
83.54	5.648
83.76	11.435
83.98	35.842
84.2	21.261
84.42	13.185
84.64	19.265
84.86	33.204
85.08	3.917
85.3	12.049
85.52	29.601
85.74	33.317
85.96	18.57
86.18	35.382
86.4	18.063
86.62	13.502
86.84	11.661
87.06	21.93
87.28	13.31
87.5	27.379
87.72	18.89
87.94	24.514
88.16	39.079
88.38	23.8
88.6	1.687
88.82	5.929
89.04	17.513
89.26	38.051
89.48	24.249
89.7	7.292
89.92	41.677
