Measurement: Powder, Xray Data XY Processed
Mineral: Volborthite
Rruff sample: R050216
Ideal chemistry: Cu^2+^_3_V^5+^_2_O_7_(OH)_2_2H_2_O
Locality: Monument Valley, White Canyon-Monument Valley District, Apache & Navajo Counties, Arizona, USA
Source: Marcus Origlieri
Description: Green rosettelike aggregate of hexagonal scaly crystals
Diffraction sample description: Powder
Measured chemistry: Cu_3.00_V_2.00_O_7_(OH)_2_Â·2H_2_O
Cell parameters: a: 10.6080(6) b: 5.8731(5) c: 7.2041(6) alpha: 90. beta: 94.963(9) gamma: 90. volume: 447.15(5) crystal system: monoclinic
x	intensity
5	0
5.22	19.112
5.44	7.67459
5.66	20.5478
5.88	14.6444
6.1	21.956
6.32	3.11296
6.54	15.7876
6.76	21.4024
6.98	13.9745
7.2	10.043
7.42	10.2056
7.64	2.85
7.86	28.2131
8.08	9.45519
8.3	0.95982
8.52	6.61935
8.74	19.7215
8.96	18.2534
9.18	30.081
9.4	4.64899
9.62	14.9136
9.84	8.97091
10.06	14.4446
10.28	17.1568
10.5	19.3846
10.72	2.22519
10.94	18.7449
11.16	39.4391
11.38	8.84214
11.6	6.85779
11.82	11.109
12.04	22.7613
12.26	255.845
12.48	64.5739
12.7	16.5291
12.92	9.01906
13.14	2.50637
13.36	5.82775
13.58	12.6811
13.8	15.5301
14.02	6.19574
14.24	14.8152
14.46	9.7148
14.68	20.04
14.9	19.8506
15.12	15.8579
15.34	24.115
15.56	17.1136
15.78	19.2115
16	16.1317
16.22	14.8684
16.44	2.1671
16.66	1.67386
16.88	11.2599
17.1	13.4738
17.32	77.2021
17.54	1.93781
17.76	17.9477
17.98	16.0921
18.2	10.8971
18.42	7.69862
18.64	18.0097
18.86	1.44894
19.08	2.02465
19.3	3.04416
19.52	8.07887
19.74	4.5107
19.96	32.3
20.18	6.91238
20.4	0.588127
20.62	3.11041
20.84	48.8224
21.06	12.3121
21.28	14.6988
21.5	30.0659
21.72	103.912
21.94	13.9344
22.16	2.16511
22.38	0.430416
22.6	11.9952
22.82	14.817
23.04	13.3777
23.26	5.73035
23.48	26.984
23.7	3.6944
23.92	24.8272
24.14	18.7813
24.36	25.2095
24.58	20.8036
24.8	39.1874
25.02	8.99945
25.24	6.43836
25.46	18.9649
25.68	19.5159
25.9	2.6824
26.12	3.36418
26.34	24.6719
26.56	13.2309
26.78	40.9448
27	13.8871
27.22	4.14626
27.44	4.48139
27.66	54.5639
27.88	14.7155
28.1	3.34594
28.32	0.568695
28.54	17.5166
28.76	83.8335
28.98	52.9012
29.2	5.16716
29.42	5.72068
29.64	59.9358
29.86	132.212
30.08	11.0082
30.3	21.0408
30.52	28.9102
30.74	8.99776
30.96	91.5754
31.18	18.948
31.4	70.5384
31.62	1.26685
31.84	9.46477
32.06	11.8868
32.28	8.77604
32.5	21.9979
32.72	7.49559
32.94	50.3188
33.16	16.479
33.38	8.89889
33.6	3.66567
33.82	35.0913
34.04	40.5925
34.26	18.2847
34.48	16.8379
34.7	10.623
34.92	131.939
35.14	92.1369
35.36	14.0511
35.58	22.154
35.8	14.4502
36.02	24.693
36.24	18.4393
36.46	18.0699
36.68	27.6845
36.9	8.4763
37.12	16.1898
37.34	17.9111
37.56	63.5024
37.78	142.161
38	7.07825
38.22	1.18471
38.44	10.0206
38.66	2.39715
38.88	5.08621
39.1	2.48502
39.32	12.8766
39.54	11.2224
39.76	8.54134
39.98	10.5747
40.2	7.58808
40.42	44.7334
40.64	19.4784
40.86	10.9941
41.08	13.5857
41.3	0.767475
41.52	16.9182
41.74	7.58035
41.96	7.52225
42.18	11.8065
42.4	33.4432
42.62	13.0222
42.84	6.85435
43.06	6.71296
43.28	17.8312
43.5	14.25
43.72	17.9306
43.94	3.05873
44.16	24.8573
44.38	46.5351
44.6	15.5335
44.82	1.67254
45.04	14.5279
45.26	13.1574
45.48	3.82896
45.7	17.5142
45.92	5.22606
46.14	5.49962
46.36	12.9625
46.58	16.656
46.8	16.197
47.02	16.6956
47.24	32.9712
47.46	7.33208
47.68	0.457737
47.9	13.3951
48.12	4.91005
48.34	11.0067
48.56	16.9028
48.78	20.7144
49	17.8108
49.22	41.6361
49.44	11.2664
49.66	0.437988
49.88	5.8962
50.1	8.28317
50.32	24.8102
50.54	24.4947
50.76	2.95334
50.98	55.3633
51.2	34.4887
51.42	18.6086
51.64	21.147
51.86	10.2951
52.08	10.9237
52.3	9.30268
52.52	8.53053
52.74	14.6748
52.96	20.2553
53.18	12.3479
53.4	75.5951
53.62	33.675
53.84	12.5426
54.06	22.0738
54.28	7.10068
54.5	31.4982
54.72	35.209
54.94	11.7774
55.16	18.9342
55.38	22.124
55.6	11.3979
55.82	17.876
56.04	10.3217
56.26	2.50058
56.48	13.1558
56.7	4.1237
56.92	8.97747
57.14	7.67046
57.36	7.44724
57.58	23.7968
57.8	8.60863
58.02	12.0314
58.24	5.59235
58.46	7.69972
58.68	16.6263
58.9	17.8215
59.12	12.6852
59.34	10.2241
59.56	20.1155
59.78	5.52261
60	5.84605
60.22	4.41993
60.44	10.7236
60.66	17.6808
60.88	20.0544
61.1	24.531
61.32	47.2321
61.54	44.4123
61.76	70.6502
61.98	58.6494
62.2	19.6098
62.42	25.6761
62.64	8.92801
62.86	4.03986
63.08	22.3296
63.3	34.067
63.52	7.24027
63.74	17.5676
63.96	19.6059
64.18	0.428242
64.4	0.420837
64.62	34.6769
64.84	21.1117
65.06	8.66379
65.28	27.3277
65.5	39.6943
65.72	5.72692
65.94	11.3296
66.16	10.9421
66.38	4.55336
66.6	9.16661
66.82	14.5657
67.04	19.9982
67.26	3.27191
67.48	21.1984
67.7	4.06081
67.92	1.70505
68.14	34.5653
68.36	22.58
68.58	11.5024
68.8	10.4383
69.02	18.4748
69.24	0.840656
69.46	12.5421
69.68	4.28225
69.9	20.3223
70.12	18.4486
70.34	24.7719
70.56	11.4334
70.78	9.06481
71	32.0565
71.22	4.73434
71.44	4.24063
71.66	18.3575
71.88	23.7113
72.1	3.57648
72.32	9.65842
72.54	19.2737
72.76	4.23165
72.98	5.00282
73.2	17.0814
73.42	1.7814
73.64	11.7766
73.86	16.9562
74.08	4.40945
74.3	28.2725
74.52	5.07393
74.74	0.942379
74.96	18.4545
75.18	13.6094
75.4	5.72069
75.62	4.12307
75.84	6.53827
76.06	18.0269
76.28	19.4979
76.5	5.11032
76.72	21.889
76.94	7.85988
77.16	13.6207
77.38	0.354061
77.6	9.21498
77.82	9.13604
78.04	33.6255
78.26	20.7222
78.48	26.5131
78.7	12.0559
78.92	4.19886
79.14	10.4167
79.36	13.5844
79.58	2.71487
79.8	10.7408
80.02	12.0006
80.24	8.8784
80.46	20.5994
80.68	10.2179
80.9	5.53008
81.12	6.67775
81.34	16.6955
81.56	3.32384
81.78	4.27085
82	19.1996
82.22	1.5631
82.44	16.3723
82.66	23.6755
82.88	7.90768
83.1	1.21816
83.32	7.18666
83.54	1.53383
83.76	25.1251
83.98	14.8261
84.2	2.78834
84.42	0.639805
84.64	1.66437
84.86	23.0309
85.08	20.9032
85.3	12.4429
85.52	11.3869
85.74	4.77935
85.96	9.3168
86.18	0.530479
86.4	19.9104
86.62	11.9354
86.84	33.7947
87.06	9.4751
87.28	11.2683
87.5	1.52876
87.72	10.6974
87.94	6.44028
88.16	23.0463
88.38	20.9954
88.6	4.65295
88.82	3.8212
89.04	11.9246
89.26	19.3404
89.48	13.0965
89.7	17.1151
89.92	0.730713
