Measurement: Powder, Xray Data XY Processed
Mineral: Voltaite
Rruff sample: R060237
Ideal chemistry: K_2_Fe^2+^_5_Fe^3+^_3_Al(S^6+^O_4_)_12_18H_2_O
Locality: Dexter no. 7 mine, Calf Mesa, San Rafael Swell, Emery County, Utah, USA
Source: University of Arizona Mineral Museum
Description: Dark blue modified octahedra associated with romerite (R060238) and coquimbite (R060638)
Diffraction sample description: Single crystal, powder profile is calculated
Cell parameters: a: 27.189(2) b: 27.189(2) c: 27.189(2) alpha: 90 beta: 90 gamma: 90 volume: 20099(4) crystal system: cubic
x	intensity
5	0
5.22	0
5.44	0
5.66	0
5.88	0
6.1	0
6.32	0
6.54	0
6.76	0
6.98	0
7.2	0
7.42	0
7.64	0
7.86	0
8.08	0
8.3	0
8.52	0
8.74	0
8.96	0
9.18	42.83
9.4	0
9.62	0
9.84	0
10.06	0
10.28	0
10.5	0
10.72	0
10.94	0
11.16	0.013
11.38	0.055
11.6	0
11.82	0
12.04	0
12.26	0
12.48	0
12.7	0
12.92	0.089
13.14	0.043
13.36	0
13.58	0
13.8	0
14.02	0
14.24	0
14.46	0
14.68	0
14.9	0
15.12	0
15.34	0
15.56	0
15.78	0
16	58.167
16.22	0
16.44	0
16.66	0
16.88	0
17.1	0
17.32	0
17.54	0
17.76	0
17.98	0
18.2	0
18.42	0.948
18.64	0
18.86	0
19.08	0
19.3	0.686
19.52	0.046
19.74	0
19.96	0
20.18	0
20.4	0
20.62	1.56
20.84	0
21.06	0
21.28	0
21.5	0
21.72	7.035
21.94	0
22.16	0
22.38	0
22.6	1.406
22.82	0
23.04	0
23.26	0
23.48	0
23.7	0
23.92	0
24.14	0
24.36	0.005
24.58	4.179
24.8	0
25.02	0.028
25.24	15.461
25.46	0
25.68	0
25.9	0
26.12	2.83
26.34	1.969
26.56	0
26.78	0
27	0.515
27.22	0
27.44	0
27.66	0
27.88	8.81
28.1	0
28.32	0.445
28.54	1.321
28.76	0.002
28.98	0
29.2	0
29.42	22.694
29.64	0
29.86	0.951
30.08	0.07
30.3	0
30.52	0
30.74	0.05
30.96	0.194
31.18	0
31.4	20.567
31.62	0
31.84	0
32.06	0
32.28	3.416
32.5	0
32.72	0
32.94	0
33.16	0
33.38	0
33.6	1.003
33.82	0
34.04	4.075
34.26	7.996
34.48	0
34.7	0
34.92	0
35.14	0
35.36	11.066
35.58	0.744
35.8	0
36.02	0
36.24	2.521
36.46	0
36.68	0
36.9	0
37.12	0
37.34	2.812
37.56	0.311
37.78	0.01
38	2.503
38.22	0
38.44	0
38.66	0.254
38.88	0
39.1	2.237
39.32	0.291
39.54	0
39.76	11.453
39.98	0.002
40.2	2.62
40.42	0
40.64	0
40.86	0.743
41.08	0.016
41.3	13.323
41.52	0.036
41.74	0
41.96	0.172
42.18	0.017
42.4	0
42.62	1.44
42.84	0
43.06	0.306
43.28	0.012
43.5	20.876
43.72	0.243
43.94	0
44.16	4.276
44.38	0.008
44.6	0.961
44.82	0.855
45.04	0
45.26	1.341
45.48	0
45.7	0
45.92	0
46.14	0.049
46.36	0.883
46.58	0.445
46.8	0.307
47.02	0
47.24	2.096
47.46	0.018
47.68	1.318
47.9	1.439
48.12	0.016
48.34	2.239
48.56	0.002
48.78	1.099
49	0
49.22	0.609
49.44	0.006
49.66	0.011
49.88	0
50.1	0.348
50.32	2.53
50.54	2.307
50.76	0.301
50.98	0
51.2	0.009
51.42	1.044
51.64	3.232
51.86	0.001
52.08	0
52.3	0
52.52	1.066
52.74	0.098
52.96	1.399
53.18	0.61
53.4	1.13
53.62	0.001
53.84	0.139
54.06	0.637
54.28	0.137
54.5	0.195
54.72	0.088
54.94	1.831
55.16	0.038
55.38	1.294
55.6	0.006
55.82	0.278
56.04	0.644
56.26	0.076
56.48	0.006
56.7	0.374
56.92	0.993
57.14	0.149
57.36	0.06
57.58	2.593
57.8	0.041
58.02	0.53
58.24	0.011
58.46	0.229
58.68	5.39
58.9	1.518
59.12	0.098
59.34	0.687
59.56	0.707
59.78	1.211
60	0.074
60.22	0.147
60.44	1.352
60.66	0.015
60.88	0.998
61.1	0.478
61.32	2.495
61.54	0.563
61.76	0.327
61.98	0.046
62.2	1.118
62.42	0.052
62.64	0.431
62.86	1.159
63.08	0.658
63.3	0.023
63.52	0.175
63.74	1.757
63.96	0.168
64.18	1.653
64.4	1.626
64.62	1.745
64.84	0.627
65.06	1.592
65.28	1.321
65.5	2.067
65.72	0.02
65.94	0
66.16	0.682
66.38	0.17
66.6	0.792
66.82	0.873
67.04	0.004
67.26	0
67.48	0.163
67.7	0.08
67.92	0.049
68.14	0.02
68.36	0.063
68.58	2.665
68.8	0.716
69.02	1.192
69.24	0.62
69.46	0.934
69.68	0.214
69.9	0.003
70.12	0.588
70.34	0.226
70.56	3.198
70.78	2.397
71	0.139
71.22	0.041
71.44	0.372
71.66	0.481
71.88	0.212
72.1	0.254
72.32	0.191
72.54	0.021
72.76	0.007
72.98	0.351
73.2	0.433
73.42	0.165
73.64	0
73.86	0.004
74.08	0.8
74.3	0.386
74.52	0.411
74.74	1.079
74.96	0.457
75.18	0.527
75.4	0.278
75.62	0.155
75.84	0.076
76.06	0.016
76.28	0.547
76.5	0.279
76.72	0.06
76.94	0.03
77.16	0.147
77.38	0.095
77.6	0.007
77.82	0.473
78.04	0.234
78.26	0
78.48	0.381
78.7	0.204
78.92	0.176
79.14	0.027
79.36	0.138
79.58	0.154
79.8	0.139
80.02	1.33
80.24	0.515
80.46	0.161
80.68	0.071
80.9	0.861
81.12	0.663
81.34	0.029
81.56	0.482
81.78	0.114
82	1.157
82.22	1.613
82.44	0.187
82.66	0.858
82.88	0.103
83.1	0.227
83.32	0.112
83.54	0.079
83.76	1.156
83.98	0.459
84.2	0.383
84.42	0.195
84.64	0.032
84.86	0.053
85.08	0
85.3	0.004
85.52	0.008
85.74	0.02
85.96	0.17
86.18	0.043
86.4	0.131
86.62	0.075
86.84	0.049
87.06	0.078
87.28	0.001
87.5	0.177
87.72	0.029
87.94	0.216
88.16	0.622
88.38	0.064
88.6	3.285
88.82	0.31
89.04	0.308
89.26	0.328
89.48	0.003
89.7	0.276
89.92	0.022
