Measurement: Powder, Xray Data XY Processed
Mineral: Vuagnatite
Rruff sample: R050397
Ideal chemistry: CaAlSiO_4_(OH)
Locality: Red Mountain, Mendocino County, California, USA
Source: Marcus Origlieri
Description: Colorless prismatic crystals
Diffraction sample description: Powder
Measured chemistry: Ca_1.00_Al_1.00_(Si_1.00_O_4_)(OH)
Cell parameters: a: 7.0534(2) b: 8.5390(3) c: 5.6816(2) alpha: 90. beta: 90. gamma: 90. volume: 342.20(2) crystal system: orthorhombic
x	intensity
5	0
5.22	1.05981
5.44	4.94012
5.66	8.25437
5.88	17.9367
6.1	5.71569
6.32	8.3946
6.54	8.90349
6.76	14.7103
6.98	0.678172
7.2	11.9052
7.42	3.74521
7.64	8.25494
7.86	1.77628
8.08	1.39581
8.3	5.71308
8.52	5.33586
8.74	10.9484
8.96	8.09395
9.18	7.40684
9.4	6.96707
9.62	16.1733
9.84	13.0729
10.06	7.16411
10.28	2.16243
10.5	8.35033
10.72	11.4772
10.94	0.45709
11.16	5.42134
11.38	7.7514
11.6	3.05619
11.82	11.1496
12.04	6.42327
12.26	12.4452
12.48	6.66841
12.7	10.819
12.92	6.8799
13.14	11.9797
13.36	17.0283
13.58	5.03724
13.8	4.92225
14.02	0.279372
14.24	2.42287
14.46	6.53116
14.68	1.77253
14.9	8.81661
15.12	7.84212
15.34	4.83802
15.56	11.0539
15.78	1.35294
16	2.47217
16.22	29.5986
16.44	4.90854
16.66	1.2468
16.88	0.623367
17.1	3.39895
17.32	2.64646
17.54	8.77338
17.76	8.85782
17.98	1.67003
18.2	1.62241
18.42	3.02283
18.64	6.06043
18.86	4.82024
19.08	0.25617
19.3	7.68682
19.52	2.34055
19.74	3.52675
19.96	5.54391
20.18	2.6984
20.4	4.00307
20.62	4.2057
20.84	9.98114
21.06	15.1023
21.28	7.11346
21.5	7.09314
21.72	7.0176
21.94	9.05332
22.16	7.93529
22.38	3.82141
22.6	119.617
22.82	11.4217
23.04	4.13801
23.26	1.16455
23.48	1.04192
23.7	1.48872
23.92	0.481748
24.14	2.3846
24.36	9.33108
24.58	1.41191
24.8	4.69806
25.02	4.65148
25.24	49.6706
25.46	15.8526
25.68	2.73535
25.9	3.70421
26.12	15.4885
26.34	0.867833
26.56	9.00056
26.78	11.2196
27	0.212242
27.22	0.993359
27.44	2.22416
27.66	8.26435
27.88	2.98708
28.1	5.8725
28.32	12.6331
28.54	1.17359
28.76	5.57599
28.98	0.768467
29.2	4.78243
29.42	14.673
29.64	35.3784
29.86	184.461
30.08	17.3452
30.3	8.46093
30.52	0.441014
30.74	2.77323
30.96	8.04643
31.18	3.26482
31.4	68.4774
31.62	25.735
31.84	3.72871
32.06	5.59567
32.28	3.4379
32.5	1.16268
32.72	2.01853
32.94	14.818
33.16	8.35883
33.38	0.290749
33.6	3.22032
33.82	32.0476
34.04	37.6771
34.26	5.53121
34.48	1.39856
34.7	0.08172
34.92	0.404989
35.14	17.4468
35.36	5.39346
35.58	196.245
35.8	11.1192
36.02	7.37613
36.24	0.669427
36.46	13.45
36.68	80.6488
36.9	5.91946
37.12	4.25121
37.34	8.16091
37.56	92.84
37.78	15.5511
38	8.14234
38.22	12.3553
38.44	0.169383
38.66	1.2443
38.88	2.4929
39.1	1.43246
39.32	7.31797
39.54	4.18076
39.76	9.46294
39.98	10.3599
40.2	17.7225
40.42	1.72793
40.64	97.0747
40.86	26.9692
41.08	2.89229
41.3	3.66201
41.52	5.70018
41.74	3.78697
41.96	3.97416
42.18	77.1904
42.4	8.93244
42.62	8.93423
42.84	5.50108
43.06	7.10542
43.28	2.22608
43.5	6.41698
43.72	7.63188
43.94	23.7916
44.16	6.05757
44.38	36.0323
44.6	3.17072
44.82	4.37799
45.04	4.42137
45.26	2.4376
45.48	0.55559
45.7	2.37089
45.92	0.985516
46.14	35.7893
46.36	8.69722
46.58	4.63564
46.8	11.5715
47.02	49.327
47.24	13.4318
47.46	4.58812
47.68	2.89319
47.9	0.088534
48.12	0.338995
48.34	2.75468
48.56	0.911979
48.78	0.880362
49	1.01357
49.22	9.00658
49.44	0.132299
49.66	8.17655
49.88	6.0179
50.1	2.05071
50.32	7.7366
50.54	7.3941
50.76	2.88788
50.98	37.9266
51.2	3.7862
51.42	8.40599
51.64	18.1134
51.86	7.6263
52.08	3.37535
52.3	18.5567
52.52	9.19492
52.74	12.2867
52.96	69.6783
53.18	20.5901
53.4	3.51596
53.62	31.9564
53.84	13.2808
54.06	0.398767
54.28	3.86517
54.5	5.09617
54.72	0.168058
54.94	33.2887
55.16	9.3774
55.38	2.10925
55.6	1.74009
55.82	2.10179
56.04	1.0159
56.26	14.0284
56.48	24.056
56.7	9.12376
56.92	0.229883
57.14	5.24438
57.36	0.390521
57.58	13.6808
57.8	9.86734
58.02	5.92358
58.24	4.49531
58.46	5.47112
58.68	8.40446
58.9	2.44948
59.12	2.67966
59.34	3.99504
59.56	5.90877
59.78	0.727468
60	10.5176
60.22	31.5567
60.44	31.5132
60.66	46.6081
60.88	10.6402
61.1	1.66488
61.32	1.14962
61.54	8.4489
61.76	4.67501
61.98	13.901
62.2	3.12785
62.42	2.44385
62.64	1.6379
62.86	2.19579
63.08	8.20584
63.3	6.27719
63.52	6.17177
63.74	1.63448
63.96	2.22576
64.18	6.03676
64.4	3.19334
64.62	3.58161
64.84	14.1714
65.06	26.0861
65.28	9.40573
65.5	21.71
65.72	13.8707
65.94	7.93328
66.16	0.066347
66.38	7.23636
66.6	1.63245
66.82	0.438643
67.04	6.47537
67.26	4.4946
67.48	5.90143
67.7	12.6553
67.92	15.3197
68.14	10.0501
68.36	2.10471
68.58	2.29572
68.8	4.43729
69.02	7.48415
69.24	5.74636
69.46	3.97259
69.68	5.10107
69.9	7.91697
70.12	4.13295
70.34	2.17842
70.56	1.32178
70.78	2.40216
71	2.18156
71.22	1.24475
71.44	6.28714
71.66	5.40771
71.88	0.698241
72.1	10.5895
72.32	12.5829
72.54	0.469112
72.76	3.53552
72.98	1.50865
73.2	4.82806
73.42	0.164191
73.64	11.824
73.86	15.0275
74.08	5.95242
74.3	0.227068
74.52	10.5996
74.74	7.45277
74.96	9.35126
75.18	0.216249
75.4	4.09299
75.62	1.73406
75.84	15.8481
76.06	14.7936
76.28	2.52396
76.5	5.31715
76.72	0.282704
76.94	1.5584
77.16	2.76971
77.38	4.24164
77.6	4.27741
77.82	8.47114
78.04	5.64161
78.26	3.64938
78.48	7.01962
78.7	1.07149
78.92	3.13377
79.14	0.054573
79.36	3.99097
79.58	3.08461
79.8	3.70239
80.02	9.87578
80.24	8.98886
80.46	4.12397
80.68	4.1022
80.9	1.90505
81.12	3.02147
81.34	6.31378
81.56	0.446546
81.78	2.49727
82	2.55461
82.22	4.502
82.44	2.30598
82.66	13.1461
82.88	7.97207
83.1	1.08371
83.32	8.05568
83.54	7.88616
83.76	6.69241
83.98	16.8348
84.2	12.9665
84.42	0.250545
84.64	3.4371
84.86	0.573609
85.08	7.7899
85.3	0.004174
85.52	2.99186
85.74	3.74724
85.96	3.60073
86.18	6.49042
86.4	5.20706
86.62	7.95676
86.84	3.60801
87.06	5.40864
87.28	3.19803
87.5	8.96453
87.72	8.77953
87.94	0.84445
88.16	11.0137
88.38	6.20886
88.6	2.59553
88.82	0.00214
89.04	6.12948
89.26	4.68443
89.48	11.3585
89.7	8.17858
89.92	7.07858
