Measurement: Powder, Xray Data XY Processed
Mineral: Waimirite-(Y)
Rruff sample: R130714
Ideal chemistry: Y^3+^F_3_
Locality: Pitinga mine, Amazon, Brazil
Source: Marcelo B Andrade
Description: Pale pink massive, portion of the original find
Diffraction sample description: Powder
Measured chemistry: (Y_0.69_Dy_0.08_Er_0.06_Yb_0.05_Ca_0.03_Gd_0.02_Ho_0.02_Nd_0.01_Sm_0.01_Tb_0.01_Tm_0.01_Lu_0.01_)_Ʃ1.00_(F_2.54_[box]_0.25_O_0.21_)_Ʃ3.00_
Cell parameters: a: 6.3817(3) b: 6.8721(4) c: 4.4085(3) alpha: 90 beta: 90 gamma: 90 volume: 193.33(1) crystal system: orthorhombic
x	intensity
3	0
3.17366	35.0321
3.34731	39.6977
3.52097	30.9039
3.69463	84.0093
3.86828	101.356
4.04194	100.961
4.2156	41.8706
4.38926	53.8048
4.56291	40.2054
4.73657	18.2602
4.91023	50.0276
5.08388	83.6384
5.25754	52.599
5.4312	48.0206
5.60485	78.4456
5.77851	216.466
5.95217	138.958
6.12582	177.066
6.29948	133.661
6.47314	76.2399
6.6468	61.1404
6.82045	61.9624
6.99411	26.774
7.16777	57.3477
7.34142	86.25
7.51508	28.8472
7.68874	32.4082
7.86239	5.79919
8.03605	47.2954
8.20971	33.7145
8.38337	10.82
8.55702	105.572
8.73068	27.2574
8.90434	34.8516
9.07799	16.7064
9.25165	60.6182
9.42531	37.7632
9.59896	42.8096
9.77262	12.2313
9.94628	72.1587
10.1199	46.6089
10.2936	120.687
10.4672	4.85254
10.6409	18.7309
10.8146	57.2654
10.9882	59.3397
11.1619	12.0713
11.3355	3.17902
11.5092	67.859
11.6828	104.183
11.8565	38.8652
12.0302	62.6428
12.2038	90.9502
12.3775	64.6175
12.5511	34.7106
12.7248	51.0566
12.8984	96.865
13.0721	130.047
13.2458	79.7053
13.4194	94.2314
13.5931	50.7228
13.7667	35.6636
13.9404	79.7358
14.114	28.0364
14.2877	23.2787
14.4614	111.149
14.635	40.3622
14.8087	18.2699
14.9823	60.8569
15.156	16.8355
15.3296	41.1645
15.5033	57.342
15.677	87.7803
15.8506	106.357
16.0243	99.5101
16.1979	71.7479
16.3716	24.5297
16.5452	80.6322
16.7189	59.4087
16.8926	155.244
17.0662	90.9998
17.2399	129.006
17.4135	157.118
17.5872	97.2808
17.7608	23.5596
17.9345	10.2111
18.1082	69.3551
18.2818	66.8852
18.4555	60.8489
18.6291	105.682
18.8028	89.8811
18.9764	36.9147
19.1501	81.2825
19.3238	33.7513
19.4974	21.8401
19.6711	52.4595
19.8447	85.2963
20.0184	60.2086
20.192	53.2948
20.3657	120.957
20.5394	89.6849
20.713	3.50732
20.8867	96.1776
21.0603	53.5489
21.234	82.139
21.4076	48.2762
21.5813	117.356
21.7549	111.335
21.9286	62.1997
22.1023	76.2465
22.2759	25.8041
22.4496	121.786
22.6232	129.63
22.7969	99.54
22.9705	27.283
23.1442	4.60632
23.3179	5.34241
23.4915	28.2545
23.6652	153.14
23.8388	359.505
24.0125	796.578
24.1861	275.891
24.3598	745.823
24.5335	2476.07
24.7071	505.888
24.8808	162.684
25.0544	29.4729
25.2281	37.3037
25.4017	69.019
25.5754	98.7914
25.7491	396.485
25.9227	2765.87
26.0964	289.289
26.27	73.8735
26.4437	11.7748
26.6173	26.3174
26.791	62.0071
26.9647	24.1874
27.1383	26.708
27.312	147.331
27.4856	383.373
27.6593	1331.28
27.8329	3314.75
28.0066	452.081
28.1803	181.282
28.3539	110.122
28.5276	114.165
28.7012	6.78442
28.8749	87.7706
29.0485	45.5106
29.2222	50.1444
29.3959	34.5583
29.5695	51.5361
29.7432	10.6958
29.9168	29.5529
30.0905	3.3949
30.2641	41.0686
30.4378	135.862
30.6115	140.112
30.7851	1175.71
30.9588	1361.55
31.1324	275.424
31.3061	130.505
31.4797	88.4879
31.6534	52.4992
31.8271	17.2136
32.0007	38.6661
32.1744	103.119
32.348	59.8582
32.5217	78.0017
32.6953	62.0648
32.869	25.5726
33.0427	5.26709
33.2163	12.1893
33.39	96.257
33.5636	72.0154
33.7373	48.5118
33.9109	55.173
34.0846	33.4839
34.2582	54.3203
34.4319	38.3066
34.6056	160.113
34.7792	49.6484
34.9529	102.832
35.1265	51.0247
35.3002	103.572
35.4738	55.2216
35.6475	41.9853
35.8212	132.166
35.9948	479.841
36.1685	82.2533
36.3421	65.3082
36.5158	2.4436
36.6894	23.9712
36.8631	38.2883
37.0368	94.8901
37.2104	143.966
37.3841	18.7075
37.5577	46.6005
37.7314	10.3527
37.905	39.9337
38.0787	27.1843
38.2524	89.5403
38.426	117.545
38.5997	109.965
38.7733	43.3127
38.947	16.9962
39.1206	61.8925
39.2943	117.509
39.468	54.7146
39.6416	22.8182
39.8153	80.7327
39.9889	42.2912
40.1626	29.5726
40.3362	32.8834
40.5099	98.2763
40.6836	188.818
40.8572	347.837
41.0309	283.831
41.2045	168.816
41.3782	44.3668
41.5518	57.6915
41.7255	14.0828
41.8992	85.2065
42.0728	30.1414
42.2465	61.1602
42.4201	24.3622
42.5938	29.3686
42.7674	5.24756
42.9411	33.9031
43.1148	38.4535
43.2884	10.8747
43.4621	147.772
43.6357	128.007
43.8094	562.887
43.983	80.5644
44.1567	85.1231
44.3304	66.8892
44.504	44.2264
44.6777	12.2597
44.8513	119.683
45.025	47.1594
45.1986	204.899
45.3723	425.139
45.546	390.229
45.7196	278.248
45.8933	95.126
46.0669	69.2953
46.2406	38.9406
46.4142	95.064
46.5879	111.851
46.7615	481.895
46.9352	902.38
47.1089	295.112
47.2825	296.577
47.4562	819.61
47.6298	276.91
47.8035	83.3665
47.9771	30.9459
48.1508	0.667908
48.3245	22.0571
48.4981	54.0899
48.6718	135.534
48.8454	780.364
49.0191	738.096
49.1927	472.007
49.3664	443.588
49.5401	225.806
49.7137	67.5541
49.8874	38.1783
50.061	34.3301
50.2347	31.7176
50.4083	42.7263
50.582	11.1575
50.7557	53.4862
50.9293	74.8541
51.103	258.139
51.2766	301.44
51.4503	187.267
51.6239	115.763
51.7976	74.6542
51.9713	139.555
52.1449	259.141
52.3186	236.996
52.4922	56.2203
52.6659	35.2685
52.8395	55.54
53.0132	71.1649
53.1869	190.501
53.3605	208.161
53.5342	74.9679
53.7078	53.9121
53.8815	73.6555
54.0551	3.48932
54.2288	57.675
54.4025	50.7861
54.5761	37.5456
54.7498	298.666
54.9234	308.079
55.0971	58.7573
55.2707	114.967
55.4444	97.4099
55.6181	59.9636
55.7917	17.7666
55.9654	21.1392
56.139	56.1079
56.3127	2.55133
56.4863	10.123
56.66	57.9856
56.8337	47.5844
57.0073	58.0867
57.181	40.7632
57.3546	14.9362
57.5283	87.3106
57.7019	103.335
57.8756	119.696
58.0493	31.3943
58.2229	50.6038
58.3966	34.9132
58.5702	51.3334
58.7439	82.0593
58.9175	2.89691
59.0912	3.80255
59.2648	79.9178
59.4385	178.137
59.6122	111.692
59.7858	105.462
59.9595	82.397
60.1331	123.774
60.3068	122.264
60.4804	41.0103
60.6541	20.3846
60.8278	76.7196
61.0014	65.8876
61.1751	26.9699
61.3487	26.3688
61.5224	45.1561
61.696	36.2196
61.8697	116.119
62.0434	134.68
62.217	122.718
62.3907	31.9089
62.5643	129.767
62.738	31.0461
62.9116	8.77417
63.0853	61.2242
63.259	111.17
63.4326	160.241
63.6063	85.6921
63.7799	11.8614
63.9536	13.7043
64.1272	62.7388
64.3009	70.7207
64.4746	53.8605
64.6482	86.5253
64.8219	6.8844
64.9955	48.5819
65.1692	95.4751
65.3428	62.4313
65.5165	106.485
65.6902	128.19
65.8638	110.385
66.0375	30.8236
66.2111	32.9227
66.3848	7.83417
66.5584	58.4377
66.7321	85.7972
66.9058	141.357
67.0794	102.568
67.2531	53.8975
67.4267	40.5756
67.6004	12.4705
67.774	83.462
67.9477	35.0627
68.1214	32.2643
68.295	52.0406
68.4687	24.7644
68.6423	114.014
68.816	63.527
68.9896	35.5648
69.1633	99.8306
69.337	94.7952
69.5106	15.8597
69.6843	97.114
69.8579	42.7156
