Measurement: Powder, Xray Data XY Processed
Mineral: Wakabayashilite
Rruff sample: R060747
Ideal chemistry: (As,Sb)_6_As_4_S_14_
Locality: White Caps mine, Manhattan, Nye County, Nevada, USA
Source: Bob Jenkins
Description: Yellow fibrous aggregates
Diffraction sample description: Powder, cell parameters are from single crystal
Measured chemistry: (As_4.49_Sb_1.51_)_Î£=6_As_4.00_S_14.00_
Cell parameters: a: 25.31(1) b: 14.613(6) c: 6.515(1) alpha: 90 beta: 90 gamma: 90 volume: 2410(1) crystal system: orthorhombic
x	intensity
5	0
5.22	17.2002
5.44	1.78029
5.66	5.98907
5.88	11.68
6.1	17.0287
6.32	15.2646
6.54	18.6503
6.76	14.1282
6.98	33.376
7.2	11.9117
7.42	4.01804
7.64	17.4291
7.86	11.6618
8.08	16.0055
8.3	9.74374
8.52	10.3685
8.74	15.897
8.96	12.5412
9.18	10.2982
9.4	17.4705
9.62	2.1172
9.84	13.6767
10.06	31.3306
10.28	28.7657
10.5	22.7714
10.72	0.61364
10.94	23.9834
11.16	8.00324
11.38	34.5236
11.6	5.38218
11.82	9.56535
12.04	23.1997
12.26	18.6472
12.48	23.006
12.7	30.5523
12.92	6.52479
13.14	27.5467
13.36	11.6344
13.58	30.6349
13.8	20.7695
14.02	66.0645
14.24	0.476196
14.46	18.8092
14.68	13.6244
14.9	9.6022
15.12	7.62151
15.34	33.7479
15.56	6.60747
15.78	41.9515
16	16.1522
16.22	7.53151
16.44	10.8852
16.66	29.5544
16.88	25.2681
17.1	20.2614
17.32	12.3779
17.54	39.864
17.76	21.7146
17.98	22.1032
18.2	8.03815
18.42	37.5287
18.64	41.2403
18.86	24.6777
19.08	1.39764
19.3	14.5225
19.52	21.3715
19.74	19.979
19.96	14.5366
20.18	3.06467
20.4	3.44386
20.62	14.907
20.84	16.6936
21.06	5.41307
21.28	3.05588
21.5	8.94141
21.72	24.9354
21.94	10.1796
22.16	3.54067
22.38	18.6645
22.6	15.5545
22.82	34.306
23.04	19.7346
23.26	15.0462
23.48	33.3589
23.7	14.5813
23.92	9.13806
24.14	14.1745
24.36	5.93492
24.58	13.2364
24.8	11.56
25.02	21.4836
25.24	7.31905
25.46	36.2675
25.68	13.8696
25.9	15.841
26.12	4.41859
26.34	10.3955
26.56	22.4473
26.78	13.0452
27	0.16396
27.22	15.5095
27.44	29.7993
27.66	11.1629
27.88	16.5587
28.1	7.66045
28.32	2.92992
28.54	19.6097
28.76	42.1106
28.98	22.6822
29.2	29.5082
29.42	13.5019
29.64	14.6941
29.86	6.46401
30.08	13.6972
30.3	13.7862
30.52	11.7487
30.74	9.39416
30.96	8.45389
31.18	11.3532
31.4	21.2307
31.62	15.4969
31.84	29.5956
32.06	8.85
32.28	2.57635
32.5	21.6207
32.72	19.0177
32.94	8.34418
33.16	2.81973
33.38	14.4784
33.6	18.3647
33.82	10.1944
34.04	23.5054
34.26	6.75822
34.48	8.66632
34.7	36.689
34.92	14.6213
35.14	11.114
35.36	17.578
35.58	7.4343
35.8	17.5456
36.02	7.26226
36.24	9.6847
36.46	16.2415
36.68	15.285
36.9	3.08877
37.12	2.92881
37.34	6.51245
37.56	7.7332
37.78	13.8459
38	10.0256
38.22	10.337
38.44	5.55552
38.66	6.25283
38.88	27.0158
39.1	10.5334
39.32	22.245
39.54	9.57763
39.76	13.8961
39.98	16.6293
40.2	6.30536
40.42	11.0694
40.64	7.83831
40.86	4.07841
41.08	12.0499
41.3	18.6923
41.52	4.20675
41.74	13.3984
41.96	13.3881
42.18	9.81863
42.4	14.679
42.62	14.1543
42.84	13.6698
43.06	9.30211
43.28	8.9237
43.5	10.6015
43.72	13.5604
43.94	13.5156
44.16	4.25101
44.38	19.5251
44.6	12.2213
44.82	22.5881
45.04	7.04952
45.26	11.5648
45.48	10.1044
45.7	7.34836
45.92	11.4624
46.14	12.7656
46.36	18.7845
46.58	16.287
46.8	13.6878
47.02	4.55064
47.24	8.94178
47.46	3.76464
47.68	7.9157
47.9	19.2882
48.12	12.2364
48.34	12.8714
48.56	17.5926
48.78	15.0194
49	19.9074
49.22	4.838
49.44	10.2024
49.66	7.59874
49.88	11.6328
50.1	10.3237
50.32	2.54881
50.54	7.81252
50.76	9.91998
50.98	8.88319
51.2	16.2397
51.42	4.99645
51.64	17.8568
51.86	17.8939
52.08	2.72001
52.3	14.9458
52.52	13.66
52.74	13.682
52.96	18.812
53.18	12.0731
53.4	9.0988
53.62	14.1883
53.84	9.20901
54.06	8.33061
54.28	8.92781
54.5	11.1247
54.72	6.34987
54.94	13.2658
55.16	13.4773
55.38	7.24055
55.6	13.8936
55.82	12.9705
56.04	15.0337
56.26	11.1057
56.48	8.9
56.7	7.28506
56.92	2.75096
57.14	15.9095
57.36	8.9823
57.58	5.1011
57.8	23.4506
58.02	24.1918
58.24	11.7601
58.46	17.0773
58.68	12.4933
58.9	9.90472
59.12	6.11121
59.34	8.37487
59.56	4.47995
59.78	11.3358
60	20.5033
60.22	6.37288
60.44	11.5201
60.66	5.23535
60.88	18.2205
61.1	14.539
61.32	11.6039
61.54	4.91864
61.76	7.2378
61.98	12.5027
62.2	2.69625
62.42	4.78478
62.64	8.76562
62.86	6.06278
63.08	12.5721
63.3	5.77404
63.52	10.5281
63.74	1.6163
63.96	5.74287
64.18	14.7687
64.4	2.59974
64.62	6.63346
64.84	12.1597
65.06	5.12149
65.28	2.10253
65.5	8.11858
65.72	10.1733
65.94	8.56254
66.16	2.72518
66.38	9.83247
66.6	9.96289
66.82	5.12344
67.04	2.28335
67.26	13.1144
67.48	5.67403
67.7	8.5214
67.92	7.36832
68.14	5.40731
68.36	5.31163
68.58	13.2332
68.8	6.83512
69.02	8.96122
69.24	11.203
69.46	2.78455
69.68	1.14219
69.9	8.17991
70.12	11.4364
70.34	6.68199
70.56	10.7985
70.78	9.73982
71	15.3241
71.22	1.51873
71.44	11.4089
71.66	9.34769
71.88	4.41401
72.1	2.38183
72.32	3.18734
72.54	6.33293
72.76	5.28691
72.98	3.34254
73.2	5.39398
73.42	7.26013
73.64	9.37752
73.86	10.6472
74.08	5.70594
74.3	8.9435
74.52	12.9032
74.74	7.3704
74.96	8.20531
75.18	2.14726
75.4	9.46114
75.62	2.48621
75.84	0.587662
76.06	9.40461
76.28	7.35075
76.5	2.35692
76.72	14.0375
76.94	7.01072
77.16	13.9268
77.38	8.10982
77.6	0.191046
77.82	7.88047
78.04	2.92682
78.26	17.6539
78.48	12.7113
78.7	1.56435
78.92	3.55132
79.14	1.77397
79.36	6.4832
79.58	10.9277
79.8	5.8754
80.02	5.12849
80.24	10.382
80.46	5.60321
80.68	8.59766
80.9	1.49167
81.12	7.44403
81.34	3.5053
81.56	12.2429
81.78	10.6718
82	6.52921
82.22	8.39462
82.44	8.90255
82.66	4.84601
82.88	2.72451
83.1	9.84071
83.32	6.91703
83.54	8.02244
83.76	7.18329
83.98	1.55886
84.2	2.95247
84.42	14.2402
84.64	18.2218
84.86	11.3176
85.08	11.1832
85.3	3.99223
85.52	2.83146
85.74	12.9379
85.96	10.2139
86.18	9.8146
86.4	5.57431
86.62	5.21155
86.84	12.0595
87.06	2.96088
87.28	10.0059
87.5	15.1151
87.72	1.27504
87.94	4.39707
88.16	6.55297
88.38	4.42641
88.6	8.74427
88.82	2.99426
89.04	3.42623
89.26	1.95193
89.48	8.37353
89.7	7.93243
89.92	8.27812
