Measurement: Powder, Xray Data XY Processed
Mineral: Walpurgite
Rruff sample: R050573
Ideal chemistry: Bi^3+^_4_O_4_(U^6+^O_2_)(As^5+^O_4_)_2_2H_2_O
Locality: Joachimstal, Bohemia, Czech Republic
Source: University of Arizona Mineral Museum
Description: Yellow thin tabular crystals associated with metazeunerite, R060301
Diffraction sample description: Single crystal, powder profile is calculated
Cell parameters: a: 7.118(9) b: 10.409(16) c: 5.482(9) alpha: 101.72(5) beta: 110.88(4) gamma: 88.18(5) volume: 371.2(4) crystal system: triclinic
x	intensity
5	0
5.22	0
5.44	0
5.66	0
5.88	0
6.1	0
6.32	0
6.54	0
6.76	0
6.98	0
7.2	0
7.42	0
7.64	0
7.86	0
8.08	0
8.3	0
8.52	0
8.74	15.311
8.96	0
9.18	0
9.4	0
9.62	0
9.84	0
10.06	0
10.28	0
10.5	0
10.72	0
10.94	0
11.16	0
11.38	0
11.6	0
11.82	0
12.04	0
12.26	0
12.48	0
12.7	0
12.92	0
13.14	0
13.36	5.985
13.58	0
13.8	0
14.02	0
14.24	0
14.46	0
14.68	0
14.9	0
15.12	0
15.34	0
15.56	13.079
15.78	0
16	0
16.22	8.354
16.44	0
16.66	0
16.88	0
17.1	0
17.32	0.045
17.54	0.01
17.76	0.618
17.98	17.473
18.2	0
18.42	0
18.64	0.205
18.86	0
19.08	0
19.3	0
19.52	0
19.74	0
19.96	0
20.18	0
20.4	0
20.62	0
20.84	0
21.06	0
21.28	0.68
21.5	4.227
21.72	0
21.94	0
22.16	11.382
22.38	0.218
22.6	0.01
22.82	0.12
23.04	0
23.26	0
23.48	0
23.7	0
23.92	0
24.14	0
24.36	0
24.58	0
24.8	0
25.02	0
25.24	0
25.46	0
25.68	0.005
25.9	5.971
26.12	0.003
26.34	12.299
26.56	0
26.78	0.118
27	4.017
27.22	6.746
27.44	24.604
27.66	0
27.88	0.08
28.1	0
28.32	0
28.54	28.253
28.76	31.106
28.98	2.561
29.2	2.925
29.42	0.718
29.64	0
29.86	0
30.08	0.12
30.3	1.629
30.52	0
30.74	0
30.96	0
31.18	0
31.4	0.092
31.62	0.04
31.84	0
32.06	0
32.28	0
32.5	0
32.72	18.858
32.94	1.429
33.16	0.039
33.38	1.108
33.6	0.017
33.82	0.838
34.04	0
34.26	0
34.48	1.863
34.7	0.021
34.92	1.895
35.14	0.39
35.36	0.052
35.58	0.035
35.8	5.931
36.02	1.121
36.24	0.709
36.46	0.696
36.68	0.241
36.9	1.851
37.12	0.105
37.34	8.794
37.56	0.032
37.78	0.258
38	0.019
38.22	0.065
38.44	0.251
38.66	1.76
38.88	0.772
39.1	0.016
39.32	0.248
39.54	0.384
39.76	0.209
39.98	0.043
40.2	2.408
40.42	0.001
40.64	0.03
40.86	0.048
41.08	2.522
41.3	5.925
41.52	1.16
41.74	0
41.96	0.002
42.18	0.103
42.4	0.197
42.62	0.389
42.84	5.637
43.06	0.844
43.28	1.058
43.5	0.093
43.72	0.462
43.94	2.255
44.16	0
44.38	0.439
44.6	0.292
44.82	0
45.04	0.009
45.26	3.631
45.48	2.914
45.7	0.189
45.92	1.648
46.14	0.211
46.36	0.001
46.58	2.184
46.8	0.019
47.02	0
47.24	6.116
47.46	0.012
47.68	0.002
47.9	0.473
48.12	3.533
48.34	0
48.56	2.351
48.78	0.018
49	0.013
49.22	5.205
49.44	0.071
49.66	0.429
49.88	0.693
50.1	0.282
50.32	0.089
50.54	2.028
50.76	4.631
50.98	0.024
51.2	0.002
51.42	4.213
51.64	5.931
51.86	0.997
52.08	1.3
52.3	0.208
52.52	2.706
52.74	0.036
52.96	1.791
53.18	0.377
53.4	1.039
53.62	0.044
53.84	0.052
54.06	1.272
54.28	4.33
54.5	1.034
54.72	0.006
54.94	1.192
55.16	1.154
55.38	3.765
55.6	1.728
55.82	1.735
56.04	2.081
56.26	1.59
56.48	2.168
56.7	1.927
56.92	0.002
57.14	0
57.36	2.513
57.58	0.531
57.8	0.131
58.02	0.11
58.24	0.431
58.46	0.964
58.68	0.06
58.9	0.001
59.12	1.73
59.34	0.501
59.56	1.056
59.78	0.022
60	0.066
60.22	0.156
60.44	0.003
60.66	1.238
60.88	2.803
61.1	1.068
61.32	0.035
61.54	2.613
61.76	1.13
61.98	0.593
62.2	0.014
62.42	0.05
62.64	1.355
62.86	2.184
63.08	0.733
63.3	1.441
63.52	1.321
63.74	0.89
63.96	0.108
64.18	0.02
64.4	0.223
64.62	0.5
64.84	0.095
65.06	0.275
65.28	0.421
65.5	0.155
65.72	0.234
65.94	0.095
66.16	1.094
66.38	0.689
66.6	0.579
66.82	1.372
67.04	0.239
67.26	0.432
67.48	0.143
67.7	0.036
67.92	0.004
68.14	0.02
68.36	0.032
68.58	2.275
68.8	2.986
69.02	1.378
69.24	0.366
69.46	0.177
69.68	0.422
69.9	1.775
70.12	0.524
70.34	0.195
70.56	1.007
70.78	1.494
71	1.401
71.22	0.822
71.44	0.657
71.66	1.232
71.88	0.425
72.1	0.24
72.32	0.16
72.54	0.889
72.76	0.91
72.98	0.318
73.2	0.04
73.42	0.232
73.64	0.331
73.86	0.255
74.08	0.202
74.3	0.489
74.52	0.203
74.74	0.061
74.96	0.719
75.18	0.853
75.4	0.31
75.62	0.32
75.84	0.596
76.06	0.61
76.28	0.251
76.5	0.354
76.72	0.264
76.94	0.09
77.16	0.879
77.38	0.784
77.6	1.793
77.82	0.817
78.04	0.338
78.26	0.378
78.48	0.304
78.7	0.735
78.92	0.438
79.14	0.081
79.36	1.413
79.58	0.795
79.8	0.417
80.02	0.629
80.24	0.157
80.46	0.561
80.68	0.214
80.9	0.062
81.12	0.106
81.34	0.359
81.56	1.176
81.78	0.764
82	0.615
82.22	0.269
82.44	0.499
82.66	1.051
82.88	0.471
83.1	0.31
83.32	1.471
83.54	0.998
83.76	0.965
83.98	0.575
84.2	0.217
84.42	0.285
84.64	0.81
84.86	0.146
85.08	0.018
85.3	0.125
85.52	0.176
85.74	0.389
85.96	0.125
86.18	0.159
86.4	0.079
86.62	0.414
86.84	0.742
87.06	0.676
87.28	0.72
87.5	0.057
87.72	0.449
87.94	1.096
88.16	0.084
88.38	0.365
88.6	0.147
88.82	0.786
89.04	0.511
89.26	0.084
89.48	0.016
89.7	0.141
89.92	0.211
