Measurement: Powder, Xray Data XY Processed
Mineral: Weloganite
Rruff sample: R050217
Ideal chemistry: Na_2_Sr_3_Zr^4+^(C^4+^O_3_)_6_3H_2_O
Locality: Francon Quarry, Montréal, Québec, Canada
Source: Marcus Origlieri
Description: Tan colored tapered hexagonal single crystals
Diffraction sample description: Powder
Measured chemistry: Na_2.00_(Sr_2.93_Ca_0.07_)_Σ=3_(Zr_0.90_Hf_0.10_)_Σ=1_(CO_3_)_6_·3H_2_O
Cell parameters: a: 8.969(3) b: 8.9714(9) c: 6.717(3) alpha: 102.872(6) beta: 116.51(6) gamma: 59.95(3) volume: 418.6(0) crystal system: triclinic
x	intensity
5	0
5.22	0.382
5.44	5.983
5.66	10.569
5.88	3.171
6.1	16.769
6.32	9.595
6.54	14.403
6.76	2.435
6.98	13.243
7.2	9.661
7.42	14.454
7.64	5.46
7.86	5.963
8.08	4.312
8.3	4.631
8.52	7.151
8.74	1.353
8.96	11.679
9.18	11.221
9.4	6.007
9.62	3.58
9.84	6.715
10.06	2.369
10.28	6.762
10.5	3.2
10.72	3.479
10.94	2.596
11.16	13.339
11.38	99.273
11.6	38.084
11.82	22.942
12.04	17.677
12.26	22.935
12.48	33.022
12.7	9.844
12.92	5.485
13.14	1.551
13.36	9.539
13.58	0.758
13.8	1.998
14.02	9.311
14.24	10.492
14.46	3.664
14.68	130.144
14.9	42.353
15.12	30.132
15.34	12.565
15.56	6.574
15.78	10.513
16	8.577
16.22	5.372
16.44	8.997
16.66	9.873
16.88	6.449
17.1	12.751
17.32	0.743
17.54	1.391
17.76	9.76
17.98	0.405
18.2	10.463
18.42	27.312
18.64	32.831
18.86	11.126
19.08	11.678
19.3	9.121
19.52	7.609
19.74	6.228
19.96	12.241
20.18	23.009
20.4	680.218
20.62	44.756
20.84	12.134
21.06	1.015
21.28	7.9
21.5	9.022
21.72	6.875
21.94	21.834
22.16	164.87
22.38	17.614
22.6	9.928
22.82	23.688
23.04	4.766
23.26	5.439
23.48	13.091
23.7	1.123
23.92	7.094
24.14	2.567
24.36	0.992
24.58	9.627
24.8	10.239
25.02	11.379
25.24	4.365
25.46	5.615
25.68	4.598
25.9	11.999
26.12	6.532
26.34	0.361
26.56	5.574
26.78	6.343
27	6.795
27.22	18.283
27.44	8.913
27.66	2.62
27.88	22.496
28.1	152.577
28.32	17.738
28.54	13.226
28.76	15.693
28.98	1.781
29.2	4.525
29.42	11.724
29.64	43.944
29.86	39.379
30.08	0.703
30.3	1.259
30.52	16.864
30.74	6.448
30.96	14.236
31.18	11.159
31.4	10.172
31.62	52.475
31.84	597.592
32.06	115.787
32.28	21.512
32.5	14.556
32.72	2.603
32.94	12.374
33.16	7.095
33.38	6.618
33.6	2.116
33.82	0.506
34.04	13.355
34.26	12.142
34.48	40.813
34.7	195.41
34.92	16.186
35.14	3.218
35.36	8.426
35.58	1.344
35.8	4.083
36.02	1.722
36.24	2.973
36.46	14.282
36.68	10.436
36.9	2.442
37.12	2.762
37.34	12.468
37.56	14.729
37.78	116.063
38	33.412
38.22	3.991
38.44	7.019
38.66	4.181
38.88	9.439
39.1	7.161
39.32	3.551
39.54	21.886
39.76	5.218
39.98	0.351
40.2	13.985
40.42	103.153
40.64	107.68
40.86	13.51
41.08	0.422
41.3	13.907
41.52	42.799
41.74	11.337
41.96	0.227
42.18	10.188
42.4	10.369
42.62	0.821
42.84	1.904
43.06	19.906
43.28	3.319
43.5	4.936
43.72	7.728
43.94	5.326
44.16	3.208
44.38	3.184
44.6	5.263
44.82	44.214
45.04	152.832
45.26	138.361
45.48	14.981
45.7	7.868
45.92	10.168
46.14	73.068
46.36	90.159
46.58	13.511
46.8	9.047
47.02	0.605
47.24	3.218
47.46	20.61
47.68	99.901
47.9	71.415
48.12	8.936
48.34	0.639
48.56	10.509
48.78	7.663
49	4.703
49.22	5.785
49.44	4.544
49.66	8.169
49.88	6.371
50.1	4.536
50.32	7.393
50.54	11.656
50.76	4.256
50.98	2.128
51.2	22.145
51.42	10.292
51.64	5.104
51.86	8.58
52.08	2.605
52.3	11.457
52.52	4.462
52.74	4.468
52.96	1.837
53.18	4.137
53.4	0.723
53.62	12.207
53.84	5.643
54.06	10.039
54.28	69.555
54.5	36.391
54.72	35.536
54.94	53.679
55.16	26.185
55.38	11.799
55.6	8.476
55.82	0.035
56.04	3.56
56.26	3.011
56.48	3.23
56.7	6.397
56.92	6.343
57.14	9.086
57.36	7.451
57.58	2.186
57.8	12.44
58.02	43.238
58.24	75.905
58.46	18.753
58.68	6.588
58.9	5.602
59.12	4.609
59.34	7.659
59.56	0.235
59.78	9.304
60	22.585
60.22	53.358
60.44	33.842
60.66	7.065
60.88	6.289
61.1	0.547
61.32	4.805
61.54	5.258
61.76	12.63
61.98	30.1
62.2	16.817
62.42	10.722
62.64	1.604
62.86	2.71
63.08	13.323
63.3	5.324
63.52	10.565
63.74	8.569
63.96	11.069
64.18	12.07
64.4	5.793
64.62	1.977
64.84	3.853
65.06	2.253
65.28	2.618
65.5	8.484
65.72	1.511
65.94	17.159
66.16	3.92
66.38	11.183
66.6	6.395
66.82	7.387
67.04	3.297
67.26	6.659
67.48	9.986
67.7	7.062
67.92	1.723
68.14	12.223
68.36	3.189
68.58	0.7
68.8	10.126
69.02	5.676
69.24	12.349
69.46	6.054
69.68	2.731
69.9	3.378
70.12	15.379
70.34	17.495
70.56	8.783
70.78	11.303
71	8.66
71.22	12.414
71.44	3.732
71.66	1.044
71.88	5.309
72.1	5.508
72.32	2.665
72.54	2.823
72.76	10.699
72.98	18.634
73.2	14.387
73.42	6.366
73.64	8.864
73.86	15.798
74.08	1.712
74.3	6.85
74.52	2.794
74.74	8.091
74.96	8.13
75.18	8.819
75.4	10.598
75.62	2.329
75.84	1.876
76.06	3.757
76.28	1.673
76.5	2.634
76.72	15.702
76.94	23.768
77.16	32.068
77.38	25.237
77.6	18.391
77.82	6.775
78.04	0.136
78.26	4.189
78.48	0.182
78.7	0.115
78.92	1.94
79.14	8.394
79.36	5.252
79.58	20.465
79.8	13.918
80.02	20.487
80.24	7.051
80.46	9.636
80.68	3.547
80.9	0.514
81.12	8.602
81.34	7.122
81.56	17.005
81.78	14.228
82	13.741
82.22	7.217
82.44	1.021
82.66	1.224
82.88	3.243
83.1	5.771
83.32	6.196
83.54	8.778
83.76	9.845
83.98	4.719
84.2	8.06
84.42	5.006
84.64	2.318
84.86	4.168
85.08	2.261
85.3	2.284
85.52	1.094
85.74	0.965
85.96	0.44
86.18	4.324
86.4	3.951
86.62	2.63
86.84	1.48
87.06	5.21
87.28	5.129
87.5	1.844
87.72	3.06
87.94	8.507
88.16	9.163
88.38	7.282
88.6	7.941
88.82	8.259
89.04	12.416
89.26	7.343
89.48	10.446
89.7	13.318
89.92	9.28
