Measurement: Powder, Xray Data XY Processed
Mineral: Whewellite
Rruff sample: R050526
Ideal chemistry: Ca(C_2_)^6+^O_4_H_2_O
Locality: Dresden, Saxony, Germany
Source: University of Arizona Mineral Museum
Description: Coating of colorless fragments
Diffraction sample description: Powder
Measured chemistry: Ca_1.00_C_2.00_O_4_Â·H_2_O ; C not measured but estimated by difference.
Cell parameters: a: 6.2908(2) b: 14.5881(7) c: 10.1189(3) alpha: 90. beta: 109.457(3) gamma: 90. volume: 875.59(4) crystal system: monoclinic
x	intensity
5	0
5.22	15.9711
5.44	7.28456
5.66	8.41877
5.88	3.56425
6.1	13.5822
6.32	8.581
6.54	6.50205
6.76	9.767
6.98	13.645
7.2	5.47873
7.42	7.28071
7.64	4.81737
7.86	4.1942
8.08	1.88495
8.3	12.11
8.52	10.5374
8.74	0.957092
8.96	4.98289
9.18	4.05148
9.4	7.40787
9.62	8.69569
9.84	4.75093
10.06	2.9076
10.28	5.07198
10.5	0.801593
10.72	4.40239
10.94	0.222618
11.16	7.55183
11.38	1.67668
11.6	1.79283
11.82	0.272841
12.04	6.80253
12.26	1.80764
12.48	4.37963
12.7	7.41803
12.92	1.15221
13.14	7.11303
13.36	3.8481
13.58	1.71174
13.8	8.94982
14.02	4.61076
14.24	0.304072
14.46	9.81239
14.68	2.38055
14.9	179.067
15.12	22.203
15.34	84.2764
15.56	2.19241
15.78	3.68342
16	8.91763
16.22	3.2948
16.44	3.65315
16.66	4.89816
16.88	0.2616
17.1	5.838
17.32	4.97402
17.54	2.74691
17.76	3.69376
17.98	5.92779
18.2	1.63315
18.42	12.53
18.64	8.33177
18.86	0.220587
19.08	2.21632
19.3	7.19164
19.52	4.6719
19.74	8.78541
19.96	8.94895
20.18	5.08102
20.4	1.99431
20.62	4.01477
20.84	0.163481
21.06	6.5504
21.28	7.86455
21.5	1.85384
21.72	3.71265
21.94	10.8519
22.16	5.79633
22.38	4.83102
22.6	4.50335
22.82	1.34833
23.04	12.1321
23.26	8.8305
23.48	7.23859
23.7	6.65786
23.92	5.63659
24.14	10.2782
24.36	113.12
24.58	21.7364
24.8	1.96087
25.02	7.97176
25.24	2.82887
25.46	11.8407
25.68	4.1241
25.9	7.21198
26.12	13.1861
26.34	6.03123
26.56	14.0108
26.78	1.84745
27	5.56608
27.22	17.1315
27.44	9.95326
27.66	8.73963
27.88	3.44078
28.1	10.1464
28.32	9.00426
28.54	8.39563
28.76	13.7222
28.98	4.06532
29.2	1.39336
29.42	0.884973
29.64	4.97398
29.86	11.4163
30.08	67.2987
30.3	30.7741
30.52	5.2186
30.74	31.34
30.96	26.0565
31.18	17.3502
31.4	11.7087
31.62	16.2732
31.84	5.04627
32.06	6.84774
32.28	1.40682
32.5	9.56287
32.72	3.34344
32.94	9.73119
33.16	6.87845
33.38	5.59609
33.6	5.94247
33.82	3.91179
34.04	4.05748
34.26	8.23653
34.48	6.13982
34.7	4.92731
34.92	6.41
35.14	7.18701
35.36	4.49889
35.58	20.0346
35.8	8.73808
36.02	91.3085
36.24	9.0673
36.46	9.43977
36.68	14.8925
36.9	7.47855
37.12	6.32124
37.34	5.24037
37.56	0.708859
37.78	9.93294
38	1.85938
38.22	67.4724
38.44	52.5113
38.66	8.69805
38.88	12.1203
39.1	2.15488
39.32	14.6507
39.54	5.88201
39.76	19.9176
39.98	55.8616
40.2	9.67951
40.42	10.1106
40.64	11.8327
40.86	13.9739
41.08	9.96732
41.3	14.0247
41.52	10.4262
41.74	5.27786
41.96	7.21896
42.18	5.24702
42.4	18.2888
42.62	0.70434
42.84	10.1563
43.06	12.0423
43.28	28.084
43.5	14.3407
43.72	39.6116
43.94	5.8253
44.16	11.6778
44.38	0.816913
44.6	7.13846
44.82	11.1017
45.04	3.19292
45.26	3.99766
45.48	6.70799
45.7	7.72967
45.92	14.1294
46.14	0.643691
46.36	22.3905
46.58	23.3644
46.8	2.16128
47.02	20.8884
47.24	20.9521
47.46	10.1085
47.68	4.30504
47.9	1.43461
48.12	40.4899
48.34	3.59838
48.56	11.1399
48.78	6.06366
49	7.75716
49.22	7.38994
49.44	9.97139
49.66	0.878888
49.88	3.18878
50.1	31.7634
50.32	27.1262
50.54	6.80993
50.76	7.1132
50.98	20.3131
51.2	4.76245
51.42	7.08712
51.64	8.31515
51.86	1.11044
52.08	2.29663
52.3	3.57866
52.52	14.408
52.74	21.4563
52.96	14.2696
53.18	5.26507
53.4	5.94388
53.62	2.80143
53.84	4.8433
54.06	5.892
54.28	1.85955
54.5	4.74177
54.72	6.77003
54.94	3.61606
55.16	2.56577
55.38	2.93172
55.6	6.05288
55.82	2.46301
56.04	1.5467
56.26	11.5449
56.48	5.61059
56.7	2.81195
56.92	6.83828
57.14	0.899178
57.36	0.928007
57.58	12.1134
57.8	8.69877
58.02	16.8001
58.24	10.4971
58.46	8.44063
58.68	7.42086
58.9	2.37241
59.12	9.51543
59.34	11.727
59.56	8.688
59.78	17.8271
60	8.92826
60.22	0.964163
60.44	6.01975
60.66	11.009
60.88	12.1042
61.1	4.08014
61.32	11.0147
61.54	0.144282
61.76	1.60391
61.98	6.55652
62.2	6.39149
62.42	4.61924
62.64	0.608918
62.86	12.5317
63.08	3.61732
63.3	6.15729
63.52	0.724545
63.74	0.300217
63.96	14.4009
64.18	6.65913
64.4	1.7335
64.62	3.54585
64.84	0.362194
65.06	5.51735
65.28	4.60254
65.5	1.43267
65.72	10.038
65.94	2.95027
66.16	2.02695
66.38	5.93723
66.6	1.77753
66.82	4.01578
67.04	10.0414
67.26	12.0775
67.48	3.945
67.7	12.191
67.92	4.67644
68.14	6.7981
68.36	4.97282
68.58	8.15662
68.8	5.33959
69.02	8.41056
69.24	4.31957
69.46	4.48049
69.68	4.55004
69.9	5.53365
70.12	14.4529
70.34	11.1431
70.56	6.1994
70.78	5.13086
71	4.96532
71.22	2.0442
71.44	6.8733
71.66	0.137266
71.88	4.73893
72.1	2.91082
72.32	3.91768
72.54	4.86344
72.76	4.11666
72.98	7.9836
73.2	4.9981
73.42	3.07454
73.64	8.34275
73.86	8.57817
74.08	7.73812
74.3	3.77602
74.52	6.70913
74.74	0.188894
74.96	0.939861
75.18	8.10465
75.4	12.1392
75.62	1.23713
75.84	5.13713
76.06	16.9865
76.28	3.11118
76.5	10.0948
76.72	0.130974
76.94	8.28052
77.16	3.95933
77.38	5.06432
77.6	4.7238
77.82	2.61459
78.04	3.59849
78.26	9.56754
78.48	5.53948
78.7	1.09893
78.92	2.7813
79.14	0.76639
79.36	0.450443
79.58	2.29615
79.8	3.08662
80.02	11.1191
80.24	5.01072
80.46	3.776
80.68	4.66174
80.9	5.63283
81.12	5.69485
81.34	9.92144
81.56	9.8196
81.78	13.8589
82	7.01425
82.22	3.21477
82.44	9.18953
82.66	1.29237
82.88	5.53375
83.1	8.52296
83.32	10.0612
83.54	6.10731
83.76	10.1624
83.98	1.76114
84.2	7.34346
84.42	3.20205
84.64	3.28378
84.86	10.2311
85.08	7.15615
85.3	1.97642
85.52	7.07569
85.74	0.593336
85.96	4.51212
86.18	5.29469
86.4	1.43165
86.62	4.24202
86.84	4.3366
87.06	17.4686
87.28	3.54143
87.5	2.33578
87.72	4.72422
87.94	6.49442
88.16	1.59886
88.38	3.77459
88.6	4.80714
88.82	7.63612
89.04	8.64661
89.26	1.3929
89.48	4.39967
89.7	8.50855
89.92	0.742488
