Measurement: Powder, Xray Data XY Processed
Mineral: Whiteite-(CaFeMg)
Rruff sample: R060912
Ideal chemistry: CaFe^2+^Mg_2_Al_2_(PO_4_)_4_(OH)_2_8H_2_O
Locality: Yukon Territory, Canada
Source: Royal Ontario Museum
Description: Dull gray-tan crystals
Diffraction sample description: Powder
Cell parameters: a: 14.930(1) b: 6.933(1) c: 9.903(1) alpha: 90 beta: 110.50(1) gamma: 90 volume: 960.1(2) crystal system: monoclinic
x	intensity
5	0
5.22	25.283
5.44	13.8966
5.66	16.0486
5.88	13.6962
6.1	7.4731
6.32	16.8572
6.54	19.8098
6.76	19.3557
6.98	23.644
7.2	2.12849
7.42	1.23334
7.64	13.2671
7.86	15.5891
8.08	4.01314
8.3	2.17645
8.52	13.1108
8.74	25.8966
8.96	14.5745
9.18	22.3414
9.4	71.3216
9.62	78.185
9.84	5.07429
10.06	15.2866
10.28	16.2016
10.5	14.3718
10.72	6.5547
10.94	8.10541
11.16	5.37716
11.38	2.46661
11.6	16.2016
11.82	9.38891
12.04	6.76011
12.26	9.75885
12.48	13.7431
12.7	17.4385
12.92	28.7932
13.14	5.35826
13.36	13.8964
13.58	11.1291
13.8	2.95508
14.02	3.96957
14.24	16.9796
14.46	8.04562
14.68	13.6865
14.9	15.7446
15.12	12.5725
15.34	9.70551
15.56	20.5639
15.78	30.667
16	22.6512
16.22	20.7543
16.44	23.234
16.66	6.13155
16.88	11.0029
17.1	3.54071
17.32	2.19758
17.54	16.1014
17.76	1.31803
17.98	16.8304
18.2	45.0885
18.42	152.355
18.64	27.1778
18.86	5.91285
19.08	58.0866
19.3	12.2976
19.52	14.5249
19.74	8.21403
19.96	0.043461
20.18	17.8359
20.4	2.12703
20.62	7.36386
20.84	10.7861
21.06	8.77812
21.28	12.7592
21.5	9.49771
21.72	7.96341
21.94	12.8572
22.16	14.1312
22.38	4.8802
22.6	18.893
22.82	9.15132
23.04	36.2046
23.26	10.5338
23.48	15.7856
23.7	15.4513
23.92	6.33913
24.14	11.7557
24.36	19.7176
24.58	7.49702
24.8	0.979404
25.02	4.59845
25.24	20.4108
25.46	63.6436
25.68	28.1618
25.9	40.3901
26.12	14.4451
26.34	1.5811
26.56	5.34812
26.78	15.2539
27	4.78924
27.22	5.00748
27.44	80.4693
27.66	2.46026
27.88	9.89833
28.1	7.05969
28.32	6.52864
28.54	17.1459
28.76	18.2011
28.98	14.8215
29.2	3.56673
29.42	2.21788
29.64	18.1102
29.86	13.7866
30.08	34.2841
30.3	142.642
30.52	15.0353
30.74	3.79152
30.96	16.5875
31.18	58.0721
31.4	29.2578
31.62	12.4063
31.84	34.4989
32.06	17.69
32.28	236.464
32.5	27.2712
32.72	4.90084
32.94	10.3784
33.16	3.91654
33.38	7.25688
33.6	5.4041
33.82	24.8596
34.04	13.0403
34.26	7.35702
34.48	4.2035
34.7	5.57142
34.92	11.1323
35.14	9.17451
35.36	66.7538
35.58	8.83861
35.8	2.67871
36.02	9.09944
36.24	8.10083
36.46	8.6312
36.68	8.21472
36.9	13.319
37.12	16.0439
37.34	17.418
37.56	7.14476
37.78	19.3046
38	2.02666
38.22	23.7106
38.44	21.0008
38.66	16.9001
38.88	5.62927
39.1	4.74643
39.32	21.4909
39.54	23.9842
39.76	8.35608
39.98	6.62384
40.2	14.4254
40.42	1.85271
40.64	21.812
40.86	18.6626
41.08	10.3944
41.3	13.0184
41.52	26.6108
41.74	14.2245
41.96	17.7008
42.18	8.64863
42.4	2.79108
42.62	22.3062
42.84	5.22973
43.06	17.233
43.28	8.90811
43.5	22.5859
43.72	10.9089
43.94	3.6493
44.16	9.28048
44.38	14.4528
44.6	2.78756
44.82	9.70635
45.04	13.8155
45.26	18.729
45.48	23.5396
45.7	4.46436
45.92	10.0117
46.14	0.632675
46.36	15.5323
46.58	20.8904
46.8	19.777
47.02	27.3761
47.24	45.7221
47.46	16.4755
47.68	6.54637
47.9	11.2464
48.12	8.54596
48.34	11.3794
48.56	13.7915
48.78	26.1719
49	13.9318
49.22	11.1197
49.44	9.26377
49.66	18.0162
49.88	17.7474
50.1	4.24124
50.32	20.648
50.54	3.96296
50.76	9.59499
50.98	10.2251
51.2	21.8616
51.42	4.60028
51.64	2.00456
51.86	18.4086
52.08	10.648
52.3	14.2777
52.52	0.982182
52.74	23.4303
52.96	15.2268
53.18	8.38557
53.4	2.13748
53.62	2.8771
53.84	10.5006
54.06	8.75168
54.28	14.1774
54.5	0.469051
54.72	18.9124
54.94	7.22385
55.16	7.7642
55.38	19.1606
55.6	9.61807
55.82	6.18926
56.04	12.2089
56.26	15.7576
56.48	3.83884
56.7	5.59049
56.92	5.63556
57.14	16.2667
57.36	6.46654
57.58	4.50846
57.8	13.9347
58.02	14.0568
58.24	13.669
58.46	9.42441
58.68	15.2719
58.9	10.2146
59.12	19.4858
59.34	20.683
59.56	12.0519
59.78	18.1081
60	3.98988
60.22	14.4117
60.44	7.90706
60.66	16.1849
60.88	2.24519
61.1	13.4188
61.32	23.4986
61.54	18.2011
61.76	0.28162
61.98	0.120033
62.2	13.5228
62.42	17.0706
62.64	18.8561
62.86	20.7024
63.08	17.817
63.3	10.3476
63.52	12.6986
63.74	7.97642
63.96	8.2075
64.18	22.4226
64.4	16.0054
64.62	6.62901
64.84	12.3103
65.06	8.25959
65.28	7.22544
65.5	7.58193
65.72	7.12694
65.94	7.74197
66.16	14.6864
66.38	4.8455
66.6	6.07174
66.82	8.13411
67.04	5.32422
67.26	2.42835
67.48	18.9408
67.7	9.10986
67.92	3.97546
68.14	17.9809
68.36	5.51677
68.58	15.4899
68.8	2.38716
69.02	16.1492
69.24	13.5468
69.46	8.78529
69.68	9.52977
69.9	3.78201
70.12	7.62362
70.34	2.15892
70.56	13.1565
70.78	7.57779
71	7.59959
71.22	10.8286
71.44	17.7023
71.66	13.7376
71.88	4.08958
72.1	19.4147
72.32	8.06856
72.54	8.36369
72.76	22.3395
72.98	9.87514
73.2	9.90564
73.42	18.9352
73.64	20.7562
73.86	20.6229
74.08	0.048813
74.3	0.111111
74.52	0.318352
74.74	7.09061
74.96	4.84569
75.18	9.01074
75.4	8.46856
75.62	10.0804
75.84	10.2488
76.06	10.2367
76.28	22.2009
76.5	8.40995
76.72	12.8206
76.94	23.469
77.16	11.8577
77.38	11.8194
77.6	10.141
77.82	19.4215
78.04	11.5414
78.26	4.4813
78.48	16.5541
78.7	14.4698
78.92	13.3674
79.14	2.05821
79.36	10.7634
79.58	18.8403
79.8	15.6409
80.02	5.75691
80.24	5.8094
80.46	18.1088
80.68	10.5974
80.9	5.36844
81.12	11.5818
81.34	17.1086
81.56	8.34798
81.78	3.53886
82	1.68332
82.22	4.39794
82.44	17.9307
82.66	15.7564
82.88	2.73453
83.1	10.8709
83.32	11.1009
83.54	14.2262
83.76	12.1669
83.98	3.93283
84.2	8.71464
84.42	3.08596
84.64	1.076
84.86	12.5223
85.08	2.66633
85.3	16.8075
85.52	14.8561
85.74	6.48241
85.96	15.124
86.18	9.83153
86.4	17.191
86.62	11.329
86.84	17.9368
87.06	11.0072
87.28	15.7754
87.5	5.28288
87.72	2.73011
87.94	5.65691
88.16	4.06693
88.38	0.45364
88.6	2.48653
88.82	21.2659
89.04	0.667812
89.26	18.2419
89.48	4.46582
89.7	13.314
89.92	7.0633
