Measurement: Powder, Xray Data XY Processed
Mineral: Widenmannite
Rruff sample: R080029
Ideal chemistry: Pb^2+^_2_U^6+^O_2_(CO_3_)_2_(OH)_2_
Locality: Pribram, Bohemia, Czechoslovakia
Source: William W. Pinch
Description: Spherical aggregates of tan to colorless acicular crystals
Diffraction sample description: Powder, using Mo radiation
x	intensity
5.59	0
5.67	3.84409
5.75	18.4498
5.83	44.0685
5.91	38.9585
5.99	18.1237
6.07	32.3573
6.15	52.7652
6.23	75.8191
6.31	107.316
6.39	94.2686
6.47	66.2184
6.55	49.9477
6.63	45.9824
6.71	41.071
6.79	0.756195
6.87	12.362
6.95	12.017
7.03	15.3114
7.11	10.0204
7.19	17.3391
7.27	5.02911
7.35	4.43744
7.43	0.900146
7.51	1.0329
7.59	18.1515
7.67	24.4177
7.75	7.45471
7.83	12.7014
7.91	6.46814
7.99	8.15183
8.07	2.79794
8.15	19.1944
8.23	13.2881
8.31	14.4809
8.39	2.31326
8.47	6.12543
8.55	13.7632
8.63	10.5185
8.71	9.8598
8.79	16.544
8.87	20.481
8.95	6.41565
9.03	1.1698
9.11	26.736
9.19	75.2676
9.27	163.845
9.35	291.237
9.43	409.106
9.51	390.461
9.59	278.916
9.67	292.704
9.75	554.831
9.83	797.254
9.91	647.898
9.99	327.858
10.07	158.055
10.15	131.631
10.23	180.815
10.31	231.408
10.39	201.063
10.47	128.019
10.55	79.9002
10.63	20.1261
10.71	1.61108
10.79	12.059
10.87	1.31467
10.95	0.377594
11.03	2.68045
11.11	7.23276
11.19	2.47577
11.27	18.2866
11.35	10.6034
11.43	22.9459
11.51	7.56259
11.59	12.4539
11.67	6.98886
11.75	8.01962
11.83	7.88556
11.91	15.8644
11.99	16.1328
12.07	29.6892
12.15	105.84
12.23	302.69
12.31	528.454
12.39	496.996
12.47	388.026
12.55	500.696
12.63	747.619
12.71	795.114
12.79	616.383
12.87	484.444
12.95	474.318
13.03	486.708
13.11	357.753
13.19	175.886
13.27	74.7435
13.35	39.6771
13.43	41.841
13.51	31.7441
13.59	62.462
13.67	115.859
13.75	137.013
13.83	117.77
13.91	73.2781
13.99	33.1457
14.07	12.3883
14.15	10.6604
14.23	6.51843
14.31	18.2696
14.39	27.1378
14.47	18.6017
14.55	7.78
14.63	2.81293
14.71	3.77908
14.79	21.3161
14.87	32.423
14.95	41.2708
15.03	34.6821
15.11	39.6626
15.19	43.018
15.27	42.1648
15.35	39.5729
15.43	16.098
15.51	1.96567
15.59	9.08273
15.67	1.29703
15.75	2.61764
15.83	23.0718
15.91	71.5502
15.99	112.709
16.07	126.561
16.15	136.954
16.23	135.774
16.31	122.606
16.39	168.111
16.47	241.4
16.55	270.687
16.63	181.805
16.71	54.2124
16.79	8.82974
16.87	3.83359
16.95	1.10919
17.03	2.53424
17.11	2.35696
17.19	3.11169
17.27	42.2276
17.35	94.8707
17.43	145.064
17.51	125.945
17.59	89.1936
17.67	31.7198
17.75	14.1602
17.83	11.5112
17.91	4.08124
17.99	23.719
18.07	40.2831
18.15	35.8498
18.23	47.6779
18.31	19.2271
18.39	7.19342
18.47	4.00577
18.55	7.13889
18.63	9.32568
18.71	5.80881
18.79	38.6624
18.87	92.0128
18.95	114.55
19.03	125.019
19.11	127.895
19.19	104.273
19.27	119.557
19.35	161.202
19.43	214.3
19.51	210.994
19.59	152.813
19.67	74.7429
19.75	32.7553
19.83	15.0205
19.91	10.5886
19.99	12.193
20.07	1.23141
20.15	1.13538
20.23	5.94663
20.31	14.3181
20.39	3.34033
20.47	52.2789
20.55	103.76
20.63	116.17
20.71	108.067
20.79	70.0684
20.87	58.4646
20.95	97.6644
21.03	162.806
21.11	202.21
21.19	180.534
21.27	159.513
21.35	125.749
21.43	159.368
21.51	181.871
21.59	178.82
21.67	180.031
21.75	178.787
21.83	195.266
21.91	201.819
21.99	205.918
22.07	171.46
22.15	136.257
22.23	90.701
22.31	51.3057
22.39	15.6572
22.47	14.0306
22.55	15.7578
22.63	8.23242
22.71	12.0015
22.79	21.1616
22.87	41.929
22.95	45.0276
23.03	70.7259
23.11	54.173
23.19	25.3876
23.27	30.6527
23.35	37.5564
23.43	58.5074
23.51	74.0953
23.59	96.0054
23.67	88.9709
23.75	52.3664
23.83	44.6338
23.91	35.9047
23.99	19.4172
24.07	3.45935
24.15	4.05447
24.23	0.575348
24.31	5.70721
24.39	20.7713
24.47	10.1623
24.55	6.08804
24.63	1.12329
24.71	8.74884
24.79	19.417
24.87	15.5815
24.95	34.3522
25.03	39.9237
25.11	43.2214
25.19	31.9774
25.27	42.0987
25.35	35.0267
25.43	48.079
25.51	55.6754
25.59	31.3891
25.67	8.24017
25.75	9.45392
25.83	7.79034
25.91	0.667053
25.99	7.25238
26.07	1.43277
26.15	7.0329
26.23	2.69312
26.31	38.1794
26.39	76.0389
26.47	127.262
26.55	111.505
26.63	90.1417
26.71	72.7862
26.79	48.9448
26.87	29.1702
26.95	9.38318
27.03	18.314
27.11	13.4152
27.19	2.0676
27.27	23.7655
27.35	45.369
27.43	39.3718
27.51	52.4526
27.59	81.5648
27.67	68.1522
27.75	73.5147
27.83	56.6829
27.91	59.5735
27.99	36.8683
28.07	35.9225
28.15	54.1533
28.23	76.5131
28.31	81.3288
28.39	70.6895
28.47	67.9746
28.55	44.9523
28.63	55.858
28.71	55.0976
28.79	69.5554
28.87	71.8732
28.95	61.4695
29.03	39.3915
29.11	19.3446
29.19	23.0466
29.27	13.8342
29.35	27.3968
29.43	37.2696
29.51	37.5439
29.59	44.0565
29.67	15.9155
29.75	10.8938
29.83	46.198
29.91	22.9236
29.99	34.0643
30.07	14.5011
30.15	22.7416
30.23	28.5397
30.31	10.6227
30.39	5.01273
30.47	11.7714
30.55	10.2163
30.63	11.8702
30.71	8.3804
30.79	0.554626
30.87	5.59055
30.95	16.3658
31.03	29.0752
31.11	41.6715
31.19	26.5816
31.27	21.2891
31.35	21.3751
31.43	40.0312
31.51	8.33972
31.59	25.9737
31.67	17.4242
31.75	16.4479
31.83	15.3822
31.91	48.5415
31.99	83.1254
32.07	76.8187
32.15	41.1385
32.23	29.2592
32.31	41.2397
32.39	38.4482
32.47	25.9343
32.55	7.41614
32.63	3.67108
32.71	4.35391
32.79	31.9224
32.87	17.0239
32.95	46.9383
33.03	48.4766
33.11	72.8658
33.19	78.6646
33.27	68.9602
33.35	66.9952
33.43	68.0083
33.51	31.5213
33.59	40.123
33.67	27.455
33.75	13.5244
33.83	10.3224
33.91	30.7617
33.99	0
