Measurement: Powder, Xray Data XY Processed
Mineral: Willemite
Rruff sample: R060875
Ideal chemistry: Zn^2+^_2_SiO_4_
Locality: Franklin, Sussex County, New Jersey, USA
Source: Marcus Origlieri
Description: Yellowish brown massive
Diffraction sample description: Powder
Measured chemistry: (Zn_1.76_Mn_0.23_Mg_0.01_)_Î£=2_Si_1.00_O_4_
Cell parameters: a: 13.9767(4) b: 13.9767(4) c: 9.3477(4) alpha: 90 beta: 90 gamma: 120 volume: 1581.42(9) crystal system: hexagonal
x	intensity
5	0
5.22	11.1708
5.44	0.774458
5.66	18.6408
5.88	12.6247
6.1	0.569025
6.32	0.386276
6.54	15.1492
6.76	19.3064
6.98	3.67707
7.2	4.02018
7.42	13.8158
7.64	14.1876
7.86	10.4788
8.08	18.9196
8.3	4.37049
8.52	6.63911
8.74	6.59708
8.96	3.85545
9.18	12.0848
9.4	11.0892
9.62	9.04574
9.84	3.31977
10.06	0.45162
10.28	10.473
10.5	5.51608
10.72	2.50094
10.94	3.46056
11.16	1.385
11.38	3.63232
11.6	4.38223
11.82	9.19535
12.04	6.93121
12.26	7.53084
12.48	1.4458
12.7	279.453
12.92	17.7386
13.14	0.13025
13.36	3.95487
13.58	0.004818
13.8	12.1898
14.02	17.6716
14.24	11.8791
14.46	1.92361
14.68	13.9151
14.9	6.03983
15.12	2.03444
15.34	0.934733
15.56	4.2034
15.78	2.39135
16	8.32881
16.22	6.41121
16.44	1.38794
16.66	7.5485
16.88	10.6412
17.1	7.58808
17.32	6.54904
17.54	6.90925
17.76	2.81063
17.98	5.59467
18.2	0.557373
18.42	4.56198
18.64	7.40001
18.86	10.645
19.08	8.42908
19.3	1.37862
19.52	9.53841
19.74	12.6686
19.96	9.32323
20.18	12.9208
20.4	32.7586
20.62	3.49813
20.84	4.24921
21.06	11.9317
21.28	5.1576
21.5	10.1483
21.72	35.0899
21.94	33.5849
22.16	28.3411
22.38	5.25854
22.6	11.1652
22.82	12.6747
23.04	6.95967
23.26	9.99634
23.48	0.420587
23.7	6.36358
23.92	6.9735
24.14	7.57816
24.36	9.30108
24.58	24.9766
24.8	5.43865
25.02	15.4801
25.24	7.93646
25.46	282.056
25.68	43.9037
25.9	4.96767
26.12	7.05206
26.34	1.23944
26.56	4.21151
26.78	9.15641
27	1.91609
27.22	9.02213
27.44	8.25585
27.66	8.75618
27.88	5.73942
28.1	16.3418
28.32	42.0519
28.54	7.41826
28.76	11.6225
28.98	9.72951
29.2	7.51759
29.42	12.7729
29.64	4.38309
29.86	2.01443
30.08	11.3461
30.3	1.79225
30.52	9.89621
30.74	15.1655
30.96	9.57176
31.18	17.7547
31.4	317.25
31.62	73.5631
31.84	20.3061
32.06	11.2385
32.28	0.123119
32.5	11.841
32.72	9.56863
32.94	6.23481
33.16	0.064857
33.38	2.29858
33.6	0.621145
33.82	74.6606
34.04	475.977
34.26	16.0765
34.48	4.78973
34.7	1.2108
34.92	9.79735
35.14	6.56427
35.36	13.1982
35.58	0.023167
35.8	15.9889
36.02	6.50239
36.24	5.6152
36.46	6.24512
36.68	9.87621
36.9	11.5914
37.12	9.683
37.34	5.36518
37.56	6.14456
37.78	17.9964
38	3.68928
38.22	17.0839
38.44	9.9459
38.66	97.2939
38.88	67.2221
39.1	12.4724
39.32	12.3723
39.54	10.0501
39.76	6.58343
39.98	9.86418
40.2	7.6007
40.42	9.78989
40.64	11.9003
40.86	10.7823
41.08	6.49183
41.3	5.55025
41.52	5.98097
41.74	8.07873
41.96	20.3454
42.18	15.8534
42.4	9.31944
42.62	0.102713
42.84	7.91105
43.06	7.77756
43.28	6.82256
43.5	22.3737
43.72	7.05043
43.94	8.88839
44.16	19.633
44.38	6.48564
44.6	0.369818
44.82	10.8129
45.04	81.5934
45.26	5.86937
45.48	4.25488
45.7	0.057846
45.92	3.59236
46.14	25.7227
46.36	5.15634
46.58	7.38697
46.8	31.5887
47.02	36.842
47.24	3.72519
47.46	0.806509
47.68	12.5895
47.9	14.2696
48.12	5.53634
48.34	12.7535
48.56	16.6482
48.78	262.319
49	44.0806
49.22	5.93515
49.44	5.61866
49.66	3.94744
49.88	0.909367
50.1	7.33743
50.32	13.6657
50.54	5.66925
50.76	3.05675
50.98	7.39075
51.2	7.73922
51.42	18.7752
51.64	4.02529
51.86	5.07092
52.08	2.91189
52.3	1.15913
52.52	6.84899
52.74	6.66343
52.96	9.23831
53.18	7.84128
53.4	10.5275
53.62	4.09987
53.84	15.1526
54.06	31.1681
54.28	42.3263
54.5	21.0759
54.72	13.8379
54.94	10.6702
55.16	3.65678
55.38	0.696522
55.6	25.5779
55.82	40.4215
56.04	21.6063
56.26	13.1503
56.48	8.68969
56.7	1.03281
56.92	7.07439
57.14	2.28344
57.36	29.3384
57.58	44.8379
57.8	15.8974
58.02	0.083557
58.24	12.9035
58.46	9.65672
58.68	6.99672
58.9	10.2304
59.12	15.3
59.34	54.6957
59.56	16.5747
59.78	7.66377
60	8.16682
60.22	14.5023
60.44	7.71083
60.66	21.2254
60.88	47.1046
61.1	11.0869
61.32	10.3948
61.54	12.5325
61.76	5.0598
61.98	5.34295
62.2	10.2609
62.42	12.3719
62.64	6.03226
62.86	11.5832
63.08	2.76956
63.3	1.22496
63.52	4.21829
63.74	3.71403
63.96	7.33452
64.18	9.23316
64.4	0.665075
64.62	4.37649
64.84	4.26848
65.06	5.16264
65.28	10.1179
65.5	97.2223
65.72	56.2438
65.94	5.02919
66.16	3.96407
66.38	10.1874
66.6	4.38603
66.82	9.88888
67.04	18.3714
67.26	9.2652
67.48	13.3841
67.7	7.37069
67.92	7.52834
68.14	10.1115
68.36	31.1567
68.58	36.0606
68.8	13.1551
69.02	1.19057
69.24	8.93301
69.46	1.08124
69.68	3.03157
69.9	43.0833
70.12	64.6128
70.34	17.8755
70.56	9.58392
70.78	12.2247
71	12.4748
71.22	4.75926
71.44	11.1749
71.66	0.539085
71.88	14.6551
72.1	0.090059
72.32	4.14354
72.54	1.96635
72.76	14.5009
72.98	6.52665
73.2	7.33743
73.42	12.5776
73.64	0.883555
73.86	6.09025
74.08	12.2481
74.3	7.375
74.52	1.5498
74.74	7.45359
74.96	1.48225
75.18	2.16076
75.4	8.02333
75.62	18.3542
75.84	19.9905
76.06	5.04759
76.28	4.63806
76.5	2.72152
76.72	7.4567
76.94	4.25811
77.16	12.1173
77.38	14.9108
77.6	19.7608
77.82	3.35988
78.04	12.906
78.26	7.08613
78.48	5.9631
78.7	11.9924
78.92	11.0567
79.14	1.8968
79.36	7.16372
79.58	7.51687
79.8	6.00797
80.02	7.32118
80.24	11.5797
80.46	19.8721
80.68	5.04914
80.9	6.1395
81.12	7.4974
81.34	16.7775
81.56	2.51617
81.78	14.1588
82	4.79649
82.22	3.37062
82.44	7.05984
82.66	10.0924
82.88	37.6555
83.1	27.3984
83.32	7.20473
83.54	0.015329
83.76	3.76506
83.98	0.005732
84.2	24.2606
84.42	13.742
84.64	7.81321
84.86	7.11777
85.08	17.107
85.3	8.02168
85.52	4.23751
85.74	7.39997
85.96	8.20019
86.18	18.0475
86.4	3.77141
86.62	2.51223
86.84	8.23616
87.06	11.4217
87.28	13.3774
87.5	23.4611
87.72	4.66043
87.94	7.81247
88.16	2.00019
88.38	5.73179
88.6	4.48609
88.82	6.97131
89.04	8.0418
89.26	10.3656
89.48	8.68794
89.7	8.36716
89.92	5.14438
