Measurement: Powder, Xray Data XY Processed
Mineral: Willemite
Rruff sample: R050652
Ideal chemistry: Zn^2+^_2_SiO_4_
Locality: Franklin Furnace, Sussex County, New Jersey, USA
Source: University of Arizona Mineral Museum
Description: Parallel aggregate of colorless acicular crystals
Diffraction sample description: Powder
Measured chemistry: (Zn_1.99_Mn_0.01_)_Î£=2_Si_1.00_O_4_
Cell parameters: a: 13.9460(2) b: 13.9460(2) c: 9.3085(2) alpha: 90. beta: 90. gamma: 120. volume: 1567.88(4) crystal system: hexagonal
x	intensity
5	0
5.22	0.900797
5.44	14.9673
5.66	1.71207
5.88	8.14411
6.1	12.4188
6.32	3.74568
6.54	7.19217
6.76	6.14891
6.98	12.9253
7.2	20.5628
7.42	10.3866
7.64	10.9253
7.86	3.64981
8.08	3.55261
8.3	2.33229
8.52	9.37699
8.74	18.0387
8.96	8.66716
9.18	6.80122
9.4	7.03806
9.62	8.65428
9.84	3.87987
10.06	10.9221
10.28	4.46385
10.5	3.4469
10.72	11.7335
10.94	3.53112
11.16	11.5418
11.38	7.60725
11.6	8.57767
11.82	4.55169
12.04	1.66572
12.26	7.5263
12.48	9.50174
12.7	102.224
12.92	12.2402
13.14	10.1896
13.36	4.42733
13.58	8.49286
13.8	4.55258
14.02	9.85656
14.24	9.02175
14.46	11.3174
14.68	3.14889
14.9	4.30617
15.12	5.57803
15.34	0.831092
15.56	1.87095
15.78	7.0468
16	3.21267
16.22	0.802133
16.44	2.3104
16.66	1.57816
16.88	3.52171
17.1	0.713171
17.32	8.70558
17.54	9.51323
17.76	4.50838
17.98	6.32456
18.2	8.03022
18.42	6.91412
18.64	4.98977
18.86	5.83999
19.08	3.72489
19.3	3.70895
19.52	6.5438
19.74	4.73083
19.96	6.49424
20.18	8.45862
20.4	0.614423
20.62	0.259402
20.84	3.13003
21.06	2.79517
21.28	7.6952
21.5	2.45936
21.72	58.6504
21.94	4.49827
22.16	517.297
22.38	17.6516
22.6	8.78686
22.82	0.373627
23.04	9.76061
23.26	8.79872
23.48	1.83912
23.7	4.74739
23.92	3.62239
24.14	2.05195
24.36	5.71184
24.58	3.37978
24.8	3.77873
25.02	5.16599
25.24	9.59905
25.46	17.1524
25.68	627.452
25.9	22.7035
26.12	5.86773
26.34	10.005
26.56	9.36843
26.78	1.89944
27	2.31371
27.22	5.62555
27.44	27.8403
27.66	3.94976
27.88	6.16474
28.1	2.03683
28.32	21.8121
28.54	20.9853
28.76	8.31176
28.98	1.24496
29.2	4.00293
29.42	2.92114
29.64	0.807387
29.86	2.06659
30.08	6.00169
30.3	6.96753
30.52	3.73215
30.74	14.6362
30.96	11.5702
31.18	1.39106
31.4	18.4063
31.62	648.389
31.84	26.0473
32.06	5.80708
32.28	0.412493
32.5	11.1592
32.72	3.71206
32.94	4.37301
33.16	12.0744
33.38	14.393
33.6	0.274778
33.82	5.96731
34.04	602.72
34.26	44.8986
34.48	5.99007
34.7	3.88054
34.92	5.72002
35.14	1.16446
35.36	0.438539
35.58	14.9461
35.8	1.62409
36.02	5.76378
36.24	0.876895
36.46	0.661164
36.68	2.69502
36.9	0.204629
37.12	3.78418
37.34	3.38915
37.56	7.26128
37.78	8.1057
38	6.96733
38.22	4.48613
38.44	5.25074
38.66	13.1807
38.88	182.185
39.1	27.3123
39.32	8.28773
39.54	17.3827
39.76	5.50661
39.98	1.67714
40.2	1.24036
40.42	8.59064
40.64	8.97213
40.86	14.1177
41.08	4.00813
41.3	0.812237
41.52	3.80131
41.74	5.83671
41.96	5.81165
42.18	41.8561
42.4	5.80626
42.62	9.39858
42.84	16.3201
43.06	8.35604
43.28	1.47874
43.5	3.74652
43.72	9.75796
43.94	9.67596
44.16	3.55332
44.38	10.46
44.6	1.39625
44.82	6.45886
45.04	57.4474
45.26	28.3793
45.48	6.28279
45.7	6.9037
45.92	4.59681
46.14	12.5493
46.36	5.50338
46.58	2.52121
46.8	9.52326
47.02	94.5462
47.24	11.7709
47.46	1.89084
47.68	2.75058
47.9	1.54943
48.12	3.36808
48.34	7.86409
48.56	9.29753
48.78	15.2851
49	230.36
49.22	21.4136
49.44	11.2273
49.66	7.92494
49.88	6.18734
50.1	14.5351
50.32	4.61679
50.54	5.68939
50.76	7.48296
50.98	2.32894
51.2	3.58282
51.42	3.842
51.64	8.01848
51.86	6.06471
52.08	5.08035
52.3	3.77556
52.52	11.5203
52.74	3.7468
52.96	6.61777
53.18	21.5045
53.4	3.29261
53.62	3.95302
53.84	0.647747
54.06	9.56004
54.28	9.81678
54.5	22.8565
54.72	12.6941
54.94	16.3026
55.16	4.06406
55.38	0.951381
55.6	4.77657
55.82	20.583
56.04	30.8318
56.26	15.0303
56.48	10.6727
56.7	12.1199
56.92	2.91319
57.14	8.94177
57.36	1.79952
57.58	37.1603
57.8	53.2016
58.02	7.46674
58.24	5.28714
58.46	4.05998
58.68	7.8654
58.9	6.06549
59.12	6.38998
59.34	4.8867
59.56	24.2083
59.78	23.1359
60	6.33935
60.22	7.67854
60.44	2.68638
60.66	2.72292
60.88	80.9421
61.1	44.0555
61.32	8.1409
61.54	2.89621
61.76	8.80741
61.98	5.20477
62.2	2.97985
62.42	10.933
62.64	0.658141
62.86	6.52567
63.08	0.488465
63.3	8.84419
63.52	1.5899
63.74	2.5541
63.96	2.50603
64.18	4.44458
64.4	22.093
64.62	8.78416
64.84	6.56475
65.06	0.404464
65.28	11.5431
65.5	0.830692
65.72	168.366
65.94	93.2565
66.16	27.1375
66.38	10.0253
66.6	8.13772
66.82	2.20697
67.04	9.63932
67.26	15.7707
67.48	7.95195
67.7	4.76406
67.92	4.73448
68.14	0.471069
68.36	0.561056
68.58	10.7446
68.8	38.0738
69.02	20.7259
69.24	3.66259
69.46	0.184522
69.68	3.87183
69.9	4.20926
70.12	29.2805
70.34	39.652
70.56	29.7381
70.78	8.86111
71	5.00757
71.22	9.93601
71.44	8.24344
71.66	18.4398
71.88	7.73525
72.1	8.08199
72.32	4.29654
72.54	1.64275
72.76	1.5312
72.98	1.80776
73.2	6.92796
73.42	5.94756
73.64	5.1723
73.86	1.22967
74.08	2.42428
74.3	10.4494
74.52	5.40977
74.74	2.52217
74.96	5.47885
75.18	7.4676
75.4	3.41943
75.62	5.43335
75.84	2.3929
76.06	14.1168
76.28	8.07608
76.5	7.82933
76.72	7.56471
76.94	1.46853
77.16	3.00847
77.38	7.96009
77.6	6.8734
77.82	4.5548
78.04	2.31407
78.26	7.05602
78.48	4.84538
78.7	5.76931
78.92	23.9756
79.14	32.144
79.36	15.1387
79.58	8.21793
79.8	1.63034
80.02	0.023797
80.24	1.15509
80.46	4.35845
80.68	11.5859
80.9	8.81186
81.12	4.91127
81.34	7.96784
81.56	7.41445
81.78	4.69631
82	1.68891
82.22	6.31174
82.44	2.97263
82.66	3.07142
82.88	1.99876
83.1	9.9361
83.32	15.6579
83.54	6.47643
83.76	3.05152
83.98	4.34922
84.2	1.41415
84.42	19.4792
84.64	16.6893
84.86	3.8302
85.08	5.07332
85.3	4.14605
85.52	10.3439
85.74	2.81368
85.96	5.95618
86.18	2.80287
86.4	7.23608
86.62	3.21991
86.84	4.1979
87.06	8.9957
87.28	8.07161
87.5	14.0403
87.72	2.93364
87.94	10.8754
88.16	9.70015
88.38	4.89282
88.6	5.24384
88.82	3.39456
89.04	0.238632
89.26	7.06982
89.48	13.3209
89.7	4.95176
89.92	1.82043
