Measurement: Powder, Xray Data XY Processed
Mineral: Wiluite
Rruff sample: R060513
Ideal chemistry: Ca_19_(Al,Mg)_13_(B,[box],Al)_5_(SiO_4_)_10_(Si_2_O_7_)_4_(O,OH)_10_
Locality: Wilui River, Sakha Republic, Russian Federation
Source: Michael Scott
Description: Dark green tetragonal prismatic
Diffraction sample description: Powder
Measured chemistry: Ca_19.00_(Al_7.90_Mg_4.67_Ti_0.43_)_Σ=13_(B_3.00_[box]_2.00_)_Σ=5_Si_18.00_O_68_(O_7.76_(OH)_2.24_)_Σ=10_ ; B not measured but estimated by charge balance.
Cell parameters: a: 15.7325(5) b: 15.7325(5) c: 11.7010(6) alpha: 90. beta: 90. gamma: 90. volume: 2896.1(2) crystal system: tetragonal
x	intensity
5	0
5.22	14.0939
5.44	14.5125
5.66	3.71969
5.88	12.6252
6.1	10.7557
6.32	6.08868
6.54	10.396
6.76	6.46265
6.98	11.8422
7.2	7.61951
7.42	4.24457
7.64	13.4911
7.86	8.64988
8.08	1.89602
8.3	0.481314
8.52	6.18371
8.74	2.61778
8.96	6.13851
9.18	7.61459
9.4	12.1517
9.62	0.027815
9.84	1.64871
10.06	3.22498
10.28	6.52927
10.5	4.88573
10.72	5.09995
10.94	4.82816
11.16	4.39559
11.38	4.41117
11.6	3.57145
11.82	5.46485
12.04	12.654
12.26	7.23583
12.48	7.10424
12.7	10.2468
12.92	0.750524
13.14	3.39755
13.36	7.71681
13.58	1.7619
13.8	4.86234
14.02	2.15154
14.24	5.9966
14.46	5.10155
14.68	7.17824
14.9	10.1412
15.12	9.1904
15.34	0.855886
15.56	0.918214
15.78	6.96214
16	3.17844
16.22	11.6151
16.44	7.79847
16.66	0.787538
16.88	9.80329
17.1	6.8738
17.32	1.9306
17.54	4.93192
17.76	6.06788
17.98	10.0558
18.2	7.05315
18.42	4.00421
18.64	3.658
18.86	10.6032
19.08	3.59122
19.3	6.64309
19.52	7.76647
19.74	4.81911
19.96	4.81097
20.18	4.69589
20.4	9.58665
20.62	2.59897
20.84	0.80671
21.06	2.75433
21.28	2.99801
21.5	5.9993
21.72	13.7982
21.94	7.6495
22.16	5.62209
22.38	1.57527
22.6	13.6015
22.82	0.211858
23.04	2.66244
23.26	8.41105
23.48	13.2315
23.7	11.4401
23.92	7.58347
24.14	1.51178
24.36	2.48141
24.58	6.36421
24.8	5.45904
25.02	1.42905
25.24	2.58779
25.46	11.725
25.68	8.73972
25.9	5.02495
26.12	4.64369
26.34	0.465815
26.56	4.42705
26.78	12.3648
27	7.38393
27.22	3.41354
27.44	14.3634
27.66	3.52649
27.88	5.27158
28.1	1.14632
28.32	7.68889
28.54	1.51714
28.76	3.54177
28.98	37.5765
29.2	12.5815
29.42	19.2613
29.64	12.6007
29.86	6.10263
30.08	2.02513
30.3	2.14113
30.52	13.6138
30.74	15.4283
30.96	9.58258
31.18	6.28562
31.4	4.9908
31.62	0.111721
31.84	1.10544
32.06	6.45662
32.28	91.444
32.5	12.6434
32.72	11.7473
32.94	11.9942
33.16	1.77124
33.38	3.90344
33.6	8.81293
33.82	2.80241
34.04	3.52415
34.26	8.17991
34.48	23.9058
34.7	65.7261
34.92	2.55631
35.14	19.3039
35.36	3.34363
35.58	11.3906
35.8	5.50861
36.02	14.7986
36.24	49.172
36.46	4.63401
36.68	13.7311
36.9	1.14533
37.12	6.76234
37.34	2.75475
37.56	3.94069
37.78	10.6331
38	15.7585
38.22	2.17503
38.44	7.8763
38.66	8.02948
38.88	12.9312
39.1	5.00038
39.32	17.6462
39.54	5.57776
39.76	0.667349
39.98	9.91168
40.2	5.94969
40.42	2.16672
40.64	17.5126
40.86	11.5785
41.08	11.3569
41.3	18.1668
41.52	7.16211
41.74	2.77311
41.96	0.370644
42.18	19.3287
42.4	12.8469
42.62	8.59365
42.84	13.1765
43.06	2.02395
43.28	13.5582
43.5	8.48965
43.72	4.59694
43.94	17.7929
44.16	7.9774
44.38	11.2458
44.6	7.55372
44.82	1.96223
45.04	8.96287
45.26	6.98933
45.48	13.5709
45.7	6.70595
45.92	6.98427
46.14	1.89345
46.36	5.76795
46.58	4.73435
46.8	4.70344
47.02	25.6248
47.24	9.46418
47.46	14.8193
47.68	15.1419
47.9	4.81444
48.12	7.05541
48.34	2.23074
48.56	4.63677
48.78	0.965468
49	3.15752
49.22	3.18442
49.44	11.6419
49.66	2.92089
49.88	5.77956
50.1	3.81935
50.32	10.6284
50.54	3.5835
50.76	7.31519
50.98	9.06644
51.2	3.80194
51.42	6.82159
51.64	35.6386
51.86	3.49124
52.08	0.332411
52.3	11.2932
52.52	4.1563
52.74	10.1501
52.96	7.25052
53.18	4.29173
53.4	7.09638
53.62	5.8414
53.84	0.953991
54.06	4.44608
54.28	1.02064
54.5	17.8059
54.72	5.49018
54.94	6.38148
55.16	5.19411
55.38	17.9073
55.6	16.7221
55.82	7.65635
56.04	10.0823
56.26	25.938
56.48	9.79984
56.7	10.1163
56.92	23.236
57.14	10.2583
57.36	2.46196
57.58	2.73978
57.8	2.94705
58.02	15.9919
58.24	9.83523
58.46	0.43504
58.68	9.22728
58.9	4.88799
59.12	20.5986
59.34	19.6697
59.56	11.6711
59.78	2.73975
60	13.3643
60.22	1.41317
60.44	2.54761
60.66	2.57392
60.88	2.70796
61.1	3.05088
61.32	9.44132
61.54	13.8065
61.76	3.81413
61.98	1.89338
62.2	1.78617
62.42	0.966111
62.64	6.21525
62.86	12.2729
63.08	12.339
63.3	6.53788
63.52	5.49344
63.74	8.40272
63.96	7.27329
64.18	3.43998
64.4	0.718002
64.62	8.18707
64.84	3.22555
65.06	0.316753
65.28	0.588105
65.5	2.41552
65.72	1.23691
65.94	8.89645
66.16	0.707489
66.38	3.75659
66.6	0.530469
66.82	6.9822
67.04	18.7417
67.26	6.76631
67.48	1.44499
67.7	9.36442
67.92	4.44371
68.14	13.5132
68.36	0.432769
68.58	10.7006
68.8	4.58405
69.02	5.04713
69.24	2.14832
69.46	9.2081
69.68	0.761934
69.9	0.514936
70.12	5.80513
70.34	1.84573
70.56	8.85394
70.78	10.892
71	10.8507
71.22	5.6547
71.44	0.551218
71.66	11.8305
71.88	3.71042
72.1	12.6977
72.32	8.4786
72.54	5.61858
72.76	10.489
72.98	3.40943
73.2	10.4046
73.42	5.60016
73.64	2.44641
73.86	11.5419
74.08	6.16458
74.3	5.20756
74.52	7.25689
74.74	7.00545
74.96	5.5366
75.18	1.75782
75.4	3.82518
75.62	11.8464
75.84	14.6644
76.06	3.73753
76.28	7.74881
76.5	3.85655
76.72	5.86806
76.94	1.8009
77.16	5.792
77.38	9.26143
77.6	2.47215
77.82	5.78253
78.04	4.01471
78.26	4.12033
78.48	6.26558
78.7	7.38361
78.92	1.61349
79.14	2.80357
79.36	3.92813
79.58	4.1649
79.8	9.20281
80.02	11.8794
80.24	3.70407
80.46	4.78034
80.68	0.704924
80.9	7.60522
81.12	3.73444
81.34	8.44094
81.56	3.64982
81.78	2.30541
82	2.08689
82.22	4.2954
82.44	13.2851
82.66	7.27295
82.88	3.03856
83.1	9.16718
83.32	3.19299
83.54	3.04699
83.76	1.11756
83.98	7.07163
84.2	6.09877
84.42	8.21627
84.64	6.93579
84.86	0.147397
85.08	13.0672
85.3	3.01158
85.52	9.82878
85.74	0.743811
85.96	4.61432
86.18	3.40035
86.4	3.2513
86.62	13.076
86.84	7.03564
87.06	0.038409
87.28	3.97162
87.5	6.87833
87.72	7.33869
87.94	9.51673
88.16	6.5849
88.38	4.83292
88.6	4.96811
88.82	4.20084
89.04	8.35474
89.26	16.7749
89.48	6.02549
89.7	2.08989
89.92	8.52373
