Measurement: Powder, Xray Data XY Processed
Mineral: Wohlerite
Rruff sample: R060086
Ideal chemistry: NaCa_2_(Zr^4+^,Nb^5+^)(Si_2_O_7_)(O,F)_2_
Locality: Langesundfjord, Norway
Source: University of Arizona Mineral Museum
Description: Yellowish-brown fragment frozen in matrix
Diffraction sample description: Powder
Measured chemistry: Na_1.00_(Ca_1.87_Fe^2+^_0.08_Mn_0.05_)_Σ=2_(Zr_0.52_Nb_0.41_Ti_0.06_Hf_0.01_)_Σ=1_Si_2.00_O_7_((OH)_1.15_O_0.78_F_0.70_)_Σ=2_
Cell parameters: a: 10.816(2) b: 10.239(1) c: 7.2907(4) alpha: 90 beta: 109.04(1) gamma: 90 volume: 763.2(1) crystal system: monoclinic
x	intensity
5	0
5.22	6.151
5.44	2.514
5.66	0.841
5.88	8.318
6.1	6.754
6.32	3.225
6.54	13.97
6.76	9.78
6.98	6.149
7.2	11.275
7.42	6.613
7.64	10.941
7.86	0.464
8.08	4.047
8.3	1.291
8.52	2.588
8.74	2.749
8.96	6.705
9.18	3.534
9.4	2.472
9.62	1.502
9.84	4.647
10.06	3.764
10.28	4.553
10.5	6.475
10.72	0.373
10.94	3.693
11.16	3.696
11.38	0.067
11.6	2.904
11.82	5.901
12.04	8.812
12.26	53.818
12.48	1.33
12.7	8.658
12.92	24.53
13.14	17.637
13.36	3.725
13.58	7.799
13.8	6.768
14.02	9.101
14.24	4.277
14.46	1.297
14.68	1.478
14.9	1.564
15.12	0.744
15.34	12.813
15.56	27.679
15.78	4.676
16	6.872
16.22	3.629
16.44	6.388
16.66	3.279
16.88	3.292
17.1	2.142
17.32	15.125
17.54	12.247
17.76	46.221
17.98	10.197
18.2	1.001
18.42	0.187
18.64	0.799
18.86	0.75
19.08	6.706
19.3	5.778
19.52	19.126
19.74	23.042
19.96	7.719
20.18	2.735
20.4	7.725
20.62	5.694
20.84	4.71
21.06	2.748
21.28	2.927
21.5	6.306
21.72	43.299
21.94	4.217
22.16	3.287
22.38	3.352
22.6	1.367
22.82	0.363
23.04	3.48
23.26	6.468
23.48	12.326
23.7	5.275
23.92	2.895
24.14	3.814
24.36	5.758
24.58	2.802
24.8	3.806
25.02	26.768
25.24	6.54
25.46	9.327
25.68	0.442
25.9	8.301
26.12	1.822
26.34	15.009
26.56	6.782
26.78	4.414
27	9.15
27.22	3.056
27.44	14.091
27.66	58.442
27.88	2.529
28.1	4.269
28.32	2.111
28.54	4.204
28.76	4.038
28.98	5.806
29.2	14.507
29.42	11.205
29.64	1.873
29.86	27.593
30.08	50.114
30.3	101.77
30.52	10.592
30.74	3.618
30.96	1.622
31.18	11.105
31.4	30.47
31.62	166.926
31.84	21.578
32.06	8.053
32.28	4.475
32.5	3.61
32.72	5.159
32.94	3.711
33.16	5.996
33.38	5.058
33.6	7.026
33.82	15.387
34.04	7.337
34.26	3.093
34.48	5.186
34.7	3.019
34.92	4.911
35.14	11.666
35.36	0.406
35.58	3.347
35.8	3.484
36.02	17.169
36.24	22.993
36.46	0.98
36.68	1.071
36.9	8.396
37.12	13.591
37.34	27.703
37.56	5.843
37.78	10.859
38	8.036
38.22	2.876
38.44	0.114
38.66	3.973
38.88	1.982
39.1	3.83
39.32	6.385
39.54	6.309
39.76	2.354
39.98	0.717
40.2	15.928
40.42	11.253
40.64	8.475
40.86	1.791
41.08	5.915
41.3	1.026
41.52	8.07
41.74	2.217
41.96	1.109
42.18	4.916
42.4	8.406
42.62	4.494
42.84	10.902
43.06	2.5
43.28	2.005
43.5	11.682
43.72	5.343
43.94	8.038
44.16	4.609
44.38	9.5
44.6	0.654
44.82	12.504
45.04	24.282
45.26	59.326
45.48	6.532
45.7	4.757
45.92	6.805
46.14	1.958
46.36	4.345
46.58	6.796
46.8	9.875
47.02	1.975
47.24	12.134
47.46	0.813
47.68	1.67
47.9	6.916
48.12	7.869
48.34	5.863
48.56	3.896
48.78	3.435
49	3.056
49.22	4.618
49.44	11.596
49.66	9.282
49.88	4.698
50.1	16.924
50.32	10.353
50.54	0.12
50.76	1.036
50.98	24.724
51.2	14.708
51.42	21.81
51.64	11.525
51.86	10.825
52.08	20.066
52.3	3.669
52.52	0.011
52.74	2.332
52.96	2.654
53.18	6.78
53.4	4.946
53.62	7.041
53.84	9.051
54.06	7.855
54.28	18.693
54.5	17.761
54.72	23.651
54.94	10.78
55.16	2.795
55.38	3.888
55.6	4.972
55.82	5.154
56.04	8.275
56.26	0.281
56.48	3.766
56.7	6.589
56.92	14.494
57.14	4.337
57.36	4.226
57.58	3.122
57.8	9.362
58.02	11.42
58.24	18.391
58.46	12.188
58.68	0.982
58.9	2.821
59.12	0.732
59.34	4.652
59.56	4.591
59.78	3.557
60	6.553
60.22	19.522
60.44	18.622
60.66	34.646
60.88	8.926
61.1	5.011
61.32	3.322
61.54	2.768
61.76	6.912
61.98	4.054
62.2	4.107
62.42	4.135
62.64	5.886
62.86	6.639
63.08	4.419
63.3	4.341
63.52	1.142
63.74	1.258
63.96	7.197
64.18	12.41
64.4	1.42
64.62	7.479
64.84	2.479
65.06	8.541
65.28	3.528
65.5	3.543
65.72	7.571
65.94	11.625
66.16	7.461
66.38	10.412
66.6	16.537
66.82	9.645
67.04	8.862
67.26	5.975
67.48	2.024
67.7	4.018
67.92	3.181
68.14	7.074
68.36	9.964
68.58	8.65
68.8	3.354
69.02	8.181
69.24	7.867
69.46	7.873
69.68	12.214
69.9	8.189
70.12	9.035
70.34	5.076
70.56	2.14
70.78	2.247
71	3.333
71.22	5.497
71.44	7.744
71.66	7.093
71.88	8.113
72.1	3.073
72.32	4.369
72.54	4.547
72.76	0.796
72.98	7.893
73.2	2.137
73.42	3.275
73.64	8.251
73.86	4.074
74.08	2.967
74.3	6.83
74.52	7.534
74.74	10.693
74.96	9.8
75.18	0.611
75.4	5.562
75.62	4.342
75.84	1.772
76.06	9.175
76.28	0.838
76.5	6.127
76.72	8.313
76.94	13.36
77.16	5.214
77.38	3.229
77.6	5.245
77.82	5.589
78.04	1.749
78.26	1.815
78.48	6.85
78.7	3.832
78.92	8.824
79.14	0.384
79.36	5.721
79.58	6.383
79.8	1.447
80.02	10.255
80.24	3.888
80.46	5.798
80.68	0.664
80.9	0.571
81.12	10.506
81.34	9.431
81.56	0.577
81.78	2.4
82	9.74
82.22	7.78
82.44	2.071
82.66	4.37
82.88	6.47
83.1	1.671
83.32	4.708
83.54	5.676
83.76	5.584
83.98	5.457
84.2	5.285
84.42	2.953
84.64	1.449
84.86	11.124
85.08	3.98
85.3	7.644
85.52	7.525
85.74	9.772
85.96	9.914
86.18	11.91
86.4	5.822
86.62	5.838
86.84	3.04
87.06	5.099
87.28	8.201
87.5	3.228
87.72	1.537
87.94	5.644
88.16	8.695
88.38	2.7
88.6	9.934
88.82	1.152
89.04	3.347
89.26	6.696
89.48	7.955
89.7	3.639
89.92	3.186
