Measurement: Powder, Xray Data XY Processed
Mineral: Wulfenite
Rruff sample: R050024
Ideal chemistry: Pb^2+^Mo^6+^O_4_
Locality: Old Yuma mine, Tucson, Arizona, USA
Source: Eugene Schlepp
Description: Orange flat tabular crystals
Diffraction sample description: Powder
Cell parameters: a: 5.4374(1) b: 5.4374(1) c: 12.1123(7) alpha: 90. beta: 90. gamma: 90. volume: 358.11(2) crystal system: tetragonal
x	intensity
5	0
5.22	4.206
5.44	1.659
5.66	6.064
5.88	11.153
6.1	14.3
6.32	11.496
6.54	7.63
6.76	0.213
6.98	3.57
7.2	12.83
7.42	5.21
7.64	3.639
7.86	4.838
8.08	0.023
8.3	3.098
8.52	5.281
8.74	4.514
8.96	7.396
9.18	2.607
9.4	0.066
9.62	0.812
9.84	6.103
10.06	3.908
10.28	4.825
10.5	0.74
10.72	4.773
10.94	0.85
11.16	6.604
11.38	3.486
11.6	7.538
11.82	0.609
12.04	0.291
12.26	3.997
12.48	4.195
12.7	7.365
12.92	7.551
13.14	2.169
13.36	3.942
13.58	3.069
13.8	9.094
14.02	1.329
14.24	10.356
14.46	4.153
14.68	5.812
14.9	7.67
15.12	7.548
15.34	2.41
15.56	10.243
15.78	8.012
16	7.927
16.22	6.896
16.44	3.716
16.66	2.576
16.88	1.493
17.1	2.44
17.32	3.331
17.54	3.426
17.76	13.457
17.98	83.463
18.2	2.659
18.42	5.61
18.64	0.732
18.86	1.337
19.08	2.779
19.3	8.837
19.52	2.874
19.74	1.916
19.96	0.941
20.18	5.983
20.4	3.035
20.62	6.819
20.84	4.956
21.06	2.065
21.28	2.864
21.5	3.166
21.72	5.262
21.94	9.446
22.16	1.856
22.38	10.858
22.6	6.895
22.82	6.954
23.04	0.087
23.26	3.799
23.48	1.403
23.7	0.726
23.92	3.107
24.14	0.978
24.36	1.292
24.58	6.451
24.8	35.904
25.02	10.744
25.24	2.644
25.46	5.298
25.68	0.188
25.9	11.358
26.12	5.774
26.34	9.154
26.56	2.437
26.78	3.786
27	12.136
27.22	20.749
27.44	295.365
27.66	342.654
27.88	17.932
28.1	5.819
28.32	9.811
28.54	0.04
28.76	6.208
28.98	7.69
29.2	4.337
29.42	28.588
29.64	126.166
29.86	17.567
30.08	2.021
30.3	0.775
30.52	6.82
30.74	0.682
30.96	8.872
31.18	5.429
31.4	3.479
31.62	0.655
31.84	0.708
32.06	3.136
32.28	0.953
32.5	3.953
32.72	13.705
32.94	139.562
33.16	58.484
33.38	19.472
33.6	14.282
33.82	0.475
34.04	7.012
34.26	1.299
34.48	2.484
34.7	0.317
34.92	4.863
35.14	3.016
35.36	6.101
35.58	5.404
35.8	2.49
36.02	7.635
36.24	12.694
36.46	0.553
36.68	2.432
36.9	1.481
37.12	5.551
37.34	3.607
37.56	7.197
37.78	69.419
38	13.324
38.22	11.382
38.44	5.229
38.66	5.468
38.88	4.38
39.1	0.588
39.32	0.676
39.54	3.198
39.76	3.024
39.98	7.371
40.2	0.935
40.42	5.936
40.64	3.252
40.86	33.299
41.08	7.052
41.3	1.218
41.52	6.229
41.74	6.413
41.96	3.525
42.18	10.345
42.4	6.116
42.62	2.195
42.84	3.562
43.06	6.004
43.28	3.35
43.5	42.853
43.72	10.124
43.94	8.491
44.16	2.86
44.38	2.346
44.6	21.556
44.82	208.484
45.04	74.507
45.26	10.794
45.48	3.222
45.7	4.66
45.92	4.986
46.14	5.364
46.36	1.224
46.58	7.156
46.8	1.617
47.02	15.667
47.24	44.208
47.46	53.514
47.68	5.43
47.9	1.982
48.12	3.89
48.34	1.948
48.56	0.163
48.78	7.794
49	6.878
49.22	6.56
49.44	3.451
49.66	0.113
49.88	14.506
50.1	2.285
50.32	0.841
50.54	8.089
50.76	10.245
50.98	49.402
51.2	100.889
51.42	22.868
51.64	12.966
51.86	7.341
52.08	1.773
52.3	1.989
52.52	3.169
52.74	3.457
52.96	0.642
53.18	7.552
53.4	4.818
53.62	6.419
53.84	1.228
54.06	2.633
54.28	3.866
54.5	1.948
54.72	7.131
54.94	12.26
55.16	14.261
55.38	35.34
55.6	198.561
55.82	86.652
56.04	26.224
56.26	4.844
56.48	7.381
56.7	79.457
56.92	56.351
57.14	10.177
57.36	6.407
57.58	2.374
57.8	5.435
58.02	5.367
58.24	4.146
58.46	3.928
58.68	10.468
58.9	6.678
59.12	2.785
59.34	3.717
59.56	9.944
59.78	9.884
60	11.942
60.22	3.657
60.44	4.497
60.66	9.353
60.88	2.029
61.1	4.774
61.32	7.555
61.54	3.282
61.76	4.336
61.98	5.124
62.2	7.89
62.42	9.065
62.64	8.273
62.86	1.499
63.08	0.265
63.3	11.179
63.52	2.293
63.74	6.458
63.96	4.479
64.18	8.699
64.4	10.855
64.62	4.011
64.84	2.927
65.06	5.764
65.28	5.507
65.5	10.447
65.72	0.912
65.94	7.003
66.16	11.91
66.38	14.1
66.6	9.988
66.82	4.933
67.04	0.101
67.26	14.172
67.48	6.121
67.7	5.027
67.92	5.932
68.14	0.162
68.36	3.755
68.58	4.639
68.8	4.196
69.02	14.406
69.24	27.667
69.46	11.759
69.68	12.354
69.9	7.033
70.12	0.668
70.34	1.761
70.56	2.289
70.78	6.101
71	3.564
71.22	34.091
71.44	22.213
71.66	12.173
71.88	23.621
72.1	45.938
72.32	42.44
72.54	22.985
72.76	7.623
72.98	7.279
73.2	0.111
73.42	1.126
73.64	9.341
73.86	8.967
74.08	9.378
74.3	2.553
74.52	4.249
74.74	4.738
74.96	1.37
75.18	5.747
75.4	2.66
75.62	2.913
75.84	17.147
76.06	29.933
76.28	9.604
76.5	2.632
76.72	12.561
76.94	20.098
77.16	17.684
77.38	3.01
77.6	8.375
77.82	0.728
78.04	4.11
78.26	6.718
78.48	10.079
78.7	37.177
78.92	22.972
79.14	7.835
79.36	0.661
79.58	1.021
79.8	2.854
80.02	8.726
80.24	2.68
80.46	7.736
80.68	18.488
80.9	20.698
81.12	17.715
81.34	4.733
81.56	0.846
81.78	6.407
82	8.625
82.22	0.797
82.44	2.867
82.66	2.869
82.88	0.28
83.1	6.35
83.32	1.328
83.54	8.534
83.76	29.56
83.98	24.183
84.2	4.013
84.42	5.843
84.64	2.647
84.86	2.473
85.08	3.299
85.3	9.156
85.52	6.076
85.74	9.864
85.96	6.619
86.18	54.61
86.4	28.645
86.62	10.141
86.84	5.586
87.06	1.91
87.28	0.582
87.5	2.964
87.72	3.58
87.94	1.95
88.16	11.471
88.38	2.841
88.6	8.257
88.82	4.322
89.04	4.375
89.26	9.659
89.48	4.584
89.7	13.578
89.92	7.327
