Measurement: Powder, Xray Data XY Processed
Mineral: Yoderite
Rruff sample: R050277
Ideal chemistry: (MgAl_3_)(MgAl)Al_2_O_2_(SiO_4_)_4_(OH)_2_
Locality: Mautia Hill, Kongwa, Central Province, Tanzania
Source: Marcus Origlieri
Description: Blue anhedral lathlike grains
Diffraction sample description: Powder
Measured chemistry: (Mg_1.95_Mn_0.05_)_Σ=2_(Al_5.54_Fe^3+^_0.46_)_Σ=6_Si_4.00_O_18_(OH)_2_
Cell parameters: a: 8.0052(3) b: 5.8061(2) c: 7.2362(3) alpha: 90 beta: 104.771(2) gamma: 90 volume: 325.22(1) crystal system: monoclinic
x	intensity
5	0
5.22	4.01195
5.44	10.2486
5.66	12.6323
5.88	10.3359
6.1	16.6029
6.32	12.1862
6.54	22.8708
6.76	13.4329
6.98	1.80441
7.2	8.58357
7.42	16.0122
7.64	7.18642
7.86	10.8473
8.08	8.43524
8.3	8.89582
8.52	15.955
8.74	18.0943
8.96	9.51567
9.18	10.5301
9.4	1.58533
9.62	11.3215
9.84	18.0424
10.06	1.83112
10.28	12.1869
10.5	6.06947
10.72	20.6407
10.94	0.755592
11.16	0.003448
11.38	2.93254
11.6	11.1433
11.82	12.5776
12.04	8.89279
12.26	1.38695
12.48	7.04063
12.7	18.5927
12.92	15.0514
13.14	18.6487
13.36	1.10101
13.58	0.966286
13.8	19.0983
14.02	12.987
14.24	6.59362
14.46	16.9321
14.68	11.7446
14.9	8.12576
15.12	20.8392
15.34	19.9187
15.56	9.99945
15.78	12.7321
16	5.01861
16.22	12.0508
16.44	0.38961
16.66	1.8927
16.88	10.938
17.1	3.32692
17.32	1.52648
17.54	1.10017
17.76	9.24643
17.98	6.16568
18.2	6.8261
18.42	13.4392
18.64	13.0786
18.86	2.59821
19.08	28.9004
19.3	0.213554
19.52	3.10534
19.74	8.6307
19.96	7.69793
20.18	13.8155
20.4	14.0193
20.62	4.72227
20.84	11.1588
21.06	16.3975
21.28	21.5728
21.5	21.748
21.72	7.96116
21.94	6.16576
22.16	17.2001
22.38	15.2822
22.6	3.55851
22.82	13.1085
23.04	45.5475
23.26	59.6232
23.48	13.0806
23.7	3.17358
23.92	12.7349
24.14	4.12959
24.36	9.23358
24.58	79.7102
24.8	21.8721
25.02	21.0009
25.24	6.81959
25.46	575.345
25.68	23.3063
25.9	20.6909
26.12	1.89511
26.34	15.7822
26.56	45.879
26.78	66.0283
27	10.1521
27.22	0.487946
27.44	16.2844
27.66	73.7189
27.88	56.8712
28.1	19.6389
28.32	17.1197
28.54	21.4687
28.76	6.77062
28.98	6.55432
29.2	12.368
29.42	26.6895
29.64	115.519
29.86	39.1824
30.08	7.93068
30.3	0.572598
30.52	13.2878
30.74	32.0463
30.96	18.1322
31.18	7.25795
31.4	10.4802
31.62	4.78822
31.84	15.5026
32.06	15.3971
32.28	7.02372
32.5	9.24825
32.72	21.1643
32.94	33.0568
33.16	26.5792
33.38	42.2447
33.6	18.7583
33.82	47.3402
34.04	14.0307
34.26	71.6166
34.48	60.6356
34.7	23.7797
34.92	9.33578
35.14	8.76178
35.36	14.9237
35.58	21.2811
35.8	4.08425
36.02	5.62738
36.24	0.943466
36.46	40.0984
36.68	30.4766
36.9	9.77527
37.12	15.8144
37.34	18.5207
37.56	3.52934
37.78	69.7448
38	8.11212
38.22	32.6213
38.44	13.0651
38.66	14.9303
38.88	43.6129
39.1	10.2957
39.32	1.22348
39.54	31.5871
39.76	0.919327
39.98	13.4462
40.2	92.4623
40.42	50.5578
40.64	11.0971
40.86	37.6884
41.08	0.501965
41.3	11.9453
41.52	0.998573
41.74	23.4384
41.96	81.9557
42.18	17.5157
42.4	8.51737
42.62	1.203
42.84	20.3732
43.06	4.0799
43.28	16.0173
43.5	26.2205
43.72	4.40361
43.94	21.9539
44.16	7.92159
44.38	5.98206
44.6	12.4233
44.82	12.8018
45.04	8.19743
45.26	78.9945
45.48	79.9658
45.7	13.6089
45.92	28.9998
46.14	143.79
46.36	12.7845
46.58	3.75202
46.8	6.01695
47.02	1.5084
47.24	13.7449
47.46	5.16497
47.68	13.4974
47.9	3.04425
48.12	43.6279
48.34	9.98692
48.56	15.2038
48.78	4.44162
49	5.56428
49.22	8.43402
49.44	17.4586
49.66	3.40605
49.88	0.674477
50.1	75.1845
50.32	69.1543
50.54	9.25782
50.76	0.317287
50.98	20.409
51.2	15.2445
51.42	5.2407
51.64	12.755
51.86	8.77608
52.08	4.71598
52.3	16.6045
52.52	7.55566
52.74	21.1858
52.96	29.9714
53.18	33.7669
53.4	2.17012
53.62	9.27471
53.84	1.77082
54.06	20.4898
54.28	7.61052
54.5	3.68524
54.72	18.809
54.94	7.41062
55.16	6.02726
55.38	8.37073
55.6	7.49286
55.82	16.4324
56.04	6.26942
56.26	16.4125
56.48	0.787952
56.7	20.6196
56.92	6.575
57.14	30.2424
57.36	27.031
57.58	16.4068
57.8	21.0054
58.02	13.0472
58.24	14.4062
58.46	0.271244
58.68	5.37139
58.9	14.0517
59.12	22.7233
59.34	5.25311
59.56	5.56018
59.78	21.8149
60	32.2996
60.22	20.9927
60.44	22.4689
60.66	16.1678
60.88	14.3102
61.1	24.9113
61.32	7.27225
61.54	5.2209
61.76	51.2918
61.98	47.5484
62.2	22.5462
62.42	10.8878
62.64	32.7513
62.86	23.3309
63.08	9.63558
63.3	18.1044
63.52	8.71015
63.74	0.490463
63.96	22.0669
64.18	50.0467
64.4	15.4252
64.62	12.8108
64.84	18.503
65.06	1.0178
65.28	11.5622
65.5	14.566
65.72	15.2472
65.94	14.9214
66.16	16.9461
66.38	12.8352
66.6	26.8115
66.82	79.3539
67.04	27.0993
67.26	7.97905
67.48	11.0551
67.7	24.6649
67.92	15.4918
68.14	29.6009
68.36	23.7321
68.58	13.9131
68.8	2.84403
69.02	19.2375
69.24	34.6352
69.46	18.8707
69.68	10.9282
69.9	7.98964
70.12	19.6754
70.34	5.44329
70.56	54.0552
70.78	30.6874
71	7.27585
71.22	19.6171
71.44	6.98539
71.66	2.05532
71.88	7.56464
72.1	17.8773
72.32	5.90327
72.54	15.066
72.76	18.9693
72.98	19.7846
73.2	7.21372
73.42	15.0742
73.64	17.1605
73.86	15.2498
74.08	4.26868
74.3	8.02553
74.52	19.1474
74.74	13.7929
74.96	5.95328
75.18	2.99725
75.4	11.2218
75.62	16.5243
75.84	16.5172
76.06	5.62656
76.28	12.878
76.5	12.0996
76.72	12.527
76.94	5.39566
77.16	9.92855
77.38	14.8981
77.6	12.5293
77.82	1.17938
78.04	12.7152
78.26	14.7217
78.48	9.32258
78.7	7.93382
78.92	2.59585
79.14	10.2981
79.36	17.377
79.58	3.54188
79.8	17.5054
80.02	7.47638
80.24	0.33778
80.46	17.2153
80.68	6.65092
80.9	10.9734
81.12	19.4945
81.34	6.76449
81.56	27.778
81.78	5.77994
82	12.0011
82.22	8.40268
82.44	15.8226
82.66	18.8812
82.88	19.4278
83.1	16.8685
83.32	11.9147
83.54	12.0522
83.76	8.6266
83.98	8.91376
84.2	0.966263
84.42	5.84222
84.64	11.7559
84.86	6.6475
85.08	8.1143
85.3	9.93327
85.52	10.2332
85.74	14.6255
85.96	8.91731
86.18	2.77757
86.4	1.92898
86.62	1.02601
86.84	6.49681
87.06	14.8698
87.28	15.6381
87.5	9.68036
87.72	15.5458
87.94	6.62878
88.16	6.28506
88.38	4.16383
88.6	30.1767
88.82	6.38389
89.04	1.63452
89.26	0.255022
89.48	30.7919
89.7	10.1518
89.92	16.7041
