Measurement: Powder, Xray Data XY Processed
Mineral: Yttrotungstite-(Y)
Rruff sample: R050569
Ideal chemistry: Y^3+^W^6+^_2_O_6_(OH)_3_
Locality: Perak, Malaysia
Source: University of Arizona Mineral Museum
Description: Colorless flattened lathlike crystals
Diffraction sample description: Powder
Measured chemistry: (Y_0.70_Nd_0.10_Ce_0.07_Dy_0.07_La_0.04_Ca_0.02_)_Σ=1_W_2.00_(O_6.00_(OH)_2.98_(H_2_O)_0.02_)_Σ=9_ ; O, OH and H_2_O estimated by difference and charge balance.
Cell parameters: a: 6.9500(3) b: 8.6352(7) c: 5.7641(6) alpha: 90. beta: 104.883(6) gamma: 90. volume: 334.33(4) crystal system: monoclinic
x	intensity
5	0
5.22	8.346
5.44	11.584
5.66	5.872
5.88	8.524
6.1	3.171
6.32	9.725
6.54	10.069
6.76	3.452
6.98	0.159
7.2	9.232
7.42	0.223
7.64	10.033
7.86	5.277
8.08	1.418
8.3	7.464
8.52	3.563
8.74	0.776
8.96	4.986
9.18	1.014
9.4	3.147
9.62	2.352
9.84	5.22
10.06	2.177
10.28	1.258
10.5	7.341
10.72	4.299
10.94	5.248
11.16	1.107
11.38	1.944
11.6	2.135
11.82	1.742
12.04	5.596
12.26	2.334
12.48	10.447
12.7	1.515
12.92	1.354
13.14	39.397
13.36	12.445
13.58	0.225
13.8	1.177
14.02	3.832
14.24	6.003
14.46	2.146
14.68	7.236
14.9	2.127
15.12	3.985
15.34	7.09
15.56	2.254
15.78	11.459
16	20.208
16.22	6.097
16.44	0.05
16.66	0.709
16.88	5.458
17.1	0.683
17.32	3.256
17.54	6.14
17.76	9.663
17.98	99.457
18.2	7.892
18.42	7.904
18.64	5.96
18.86	18.966
19.08	95.198
19.3	4.587
19.52	2.65
19.74	3.721
19.96	4.922
20.18	0.879
20.4	6.334
20.62	18.491
20.84	0.602
21.06	5.712
21.28	2.987
21.5	10.985
21.72	5.832
21.94	6.881
22.16	4.787
22.38	7.608
22.6	5.589
22.82	1.602
23.04	0.213
23.26	55.352
23.48	6.054
23.7	4.695
23.92	2.513
24.14	5.366
24.36	6.062
24.58	22.794
24.8	7.143
25.02	3.695
25.24	5.84
25.46	9.186
25.68	1.942
25.9	4.767
26.12	2.536
26.34	13.173
26.56	179.788
26.78	27.836
27	12.521
27.22	40.111
27.44	145.069
27.66	11.717
27.88	6.96
28.1	3.153
28.32	17.454
28.54	47.733
28.76	8.06
28.98	9.642
29.2	40.645
29.42	12.631
29.64	2.8
29.86	2.94
30.08	0.974
30.3	3.973
30.52	4.084
30.74	0.923
30.96	1.957
31.18	47.831
31.4	23.62
31.62	9.136
31.84	11.776
32.06	23.518
32.28	44.722
32.5	10.051
32.72	8.967
32.94	6.703
33.16	0.371
33.38	7.233
33.6	2.917
33.82	24.804
34.04	38.423
34.26	2.835
34.48	34.267
34.7	22.303
34.92	2.258
35.14	26.469
35.36	9.772
35.58	0.746
35.8	1.442
36.02	10.399
36.24	40.9
36.46	10.333
36.68	9.643
36.9	12.05
37.12	4.291
37.34	3.416
37.56	6.578
37.78	4.787
38	14.533
38.22	3.408
38.44	6.697
38.66	4.384
38.88	0.78
39.1	7.027
39.32	11.874
39.54	8.432
39.76	4.808
39.98	3.878
40.2	51.797
40.42	52.961
40.64	15.1
40.86	0.267
41.08	2.222
41.3	1.578
41.52	3.689
41.74	10.963
41.96	15.215
42.18	5.853
42.4	7.555
42.62	6.371
42.84	5.358
43.06	3.439
43.28	11.764
43.5	15.562
43.72	15.038
43.94	0.185
44.16	1.418
44.38	3.018
44.6	12.801
44.82	68.639
45.04	16.557
45.26	24.702
45.48	23.565
45.7	46.549
45.92	5.801
46.14	3.089
46.36	5.359
46.58	3.631
46.8	0.165
47.02	0.798
47.24	6.109
47.46	18.191
47.68	6.872
47.9	4.617
48.12	0.407
48.34	1.692
48.56	11.35
48.78	17.918
49	13.34
49.22	6.702
49.44	3.951
49.66	4.384
49.88	20.956
50.1	11.571
50.32	13.198
50.54	5.167
50.76	11.287
50.98	32.176
51.2	1.155
51.42	3.2
51.64	0.848
51.86	16.129
52.08	18.351
52.3	5.807
52.52	10.274
52.74	26.615
52.96	22.664
53.18	7.336
53.4	0.387
53.62	2.618
53.84	6.821
54.06	5.105
54.28	2.33
54.5	1.307
54.72	5.935
54.94	6.712
55.16	5.597
55.38	9.509
55.6	30.202
55.82	36.877
56.04	18.714
56.26	0.525
56.48	0.361
56.7	1.27
56.92	0.147
57.14	5.206
57.36	10.294
57.58	15.77
57.8	22.463
58.02	22.766
58.24	2.51
58.46	7.697
58.68	5.59
58.9	3.45
59.12	18.399
59.34	10.443
59.56	5.207
59.78	7.264
60	16.508
60.22	5.066
60.44	7.537
60.66	9.853
60.88	1.921
61.1	3.567
61.32	2.564
61.54	18.852
61.76	20.012
61.98	9.087
62.2	1.103
62.42	1.198
62.64	4.939
62.86	4.854
63.08	14.466
63.3	18.061
63.52	11.389
63.74	1.376
63.96	3.017
64.18	14.033
64.4	10.919
64.62	14.915
64.84	20.019
65.06	6.371
65.28	11.733
65.5	11.202
65.72	24.916
65.94	13.335
66.16	4.764
66.38	0.818
66.6	1.63
66.82	6.681
67.04	10.973
67.26	10.133
67.48	9.168
67.7	2.143
67.92	7.17
68.14	4.134
68.36	0.218
68.58	5.217
68.8	4.263
69.02	4.179
69.24	8.15
69.46	5.278
69.68	8.363
69.9	8.118
70.12	5.985
70.34	12.925
70.56	0.318
70.78	5.574
71	6.833
71.22	3.928
71.44	2.89
71.66	2.672
71.88	2.188
72.1	4.702
72.32	5.344
72.54	0.066
72.76	10.591
72.98	3.209
73.2	11.979
73.42	15.4
73.64	20.918
73.86	31.949
74.08	19.94
74.3	8.053
74.52	8.264
74.74	2.687
74.96	4.301
75.18	11.289
75.4	3.301
75.62	10.31
75.84	9.142
76.06	6.652
76.28	7.733
76.5	0.042
76.72	10.093
76.94	11.145
77.16	8.423
77.38	2.776
77.6	6.111
77.82	6.943
78.04	5.177
78.26	11.508
78.48	5.429
78.7	1.155
78.92	3.266
79.14	4.203
79.36	7.393
79.58	13.351
79.8	8.326
80.02	0.702
80.24	1.835
80.46	9.885
80.68	7.293
80.9	7.43
81.12	3.704
81.34	6.779
81.56	9.88
81.78	1.273
82	5.833
82.22	4.257
82.44	8.371
82.66	5.171
82.88	11.863
83.1	2.525
83.32	5.133
83.54	1.872
83.76	0.308
83.98	4.457
84.2	3.252
84.42	10.6
84.64	0.49
84.86	5.424
85.08	5.44
85.3	7.663
85.52	6.094
85.74	8.286
85.96	2.768
86.18	1.944
86.4	12.255
86.62	0.446
86.84	13.561
87.06	8.6
87.28	2.465
87.5	7.471
87.72	10.453
87.94	16.947
88.16	8.839
88.38	13.439
88.6	7.22
88.82	1.925
89.04	0.82
89.26	1.733
89.48	2.403
89.7	7.963
89.92	3.717
