Measurement: Powder, Xray Data XY Processed
Mineral: Zaratite
Rruff sample: R050268
Ideal chemistry: Ni^2+^_3_C^4+^O_3_(OH)_4_4H_2_O
Locality: Lord Brassy mine, Tasmania, Australia
Source: Marcus Origlieri
Description: Green amorphous crust, intimately associated with nepouite
Diffraction sample description: Powder
Measured chemistry: Ni_3.00_(CO_3_)(OH)_4_Â·4H_2_O
x	intensity
5.004	0
5.225	206.289
5.446	440.059
5.667	456.289
5.888	592.797
6.109	1064.17
6.33	842.691
6.551	385.691
6.772	99.7109
6.993	325.086
7.214	93.1953
7.435	421.133
7.656	918.879
7.877	1114.81
8.098	1496.28
8.319	1641.38
8.54	2061.63
8.761	2078.2
8.982	2256.43
9.203	1722.41
9.424	2088.93
9.645	1752.8
9.866	1836.57
10.087	1599.98
10.308	1750.07
10.529	1544.21
10.75	1285.26
10.971	1307.21
11.192	1165.48
11.413	1272.36
11.634	1383.6
11.855	2709.88
12.076	5617.51
12.297	5774.05
12.518	1666.02
12.739	489.629
12.96	51.7422
13.181	415.906
13.402	64.4961
13.623	178.727
13.844	11.3398
14.065	30.6602
14.286	196.578
14.507	8.54297
14.728	196.731
14.949	187.203
15.17	447.926
15.391	386.027
15.612	321.578
15.833	634.492
16.054	878.953
16.275	1434.92
16.496	1404.61
16.717	1345.37
16.938	1286.15
17.159	1449.61
17.38	1504.82
17.601	1769.68
17.822	1722.53
18.043	1481.91
18.264	1285.64
18.485	1113.85
18.706	909.656
18.927	721.801
19.148	617.367
19.369	1203.92
19.59	1477.81
19.811	1153.53
20.032	891.293
20.253	274.316
20.474	409.66
20.695	362.414
20.916	164.856
21.137	7.26953
21.358	64.3555
21.579	102.562
21.8	116.797
22.021	137.086
22.242	355.871
22.463	42.5469
22.684	50.0586
22.905	289.402
23.126	387.523
23.347	210.535
23.568	444.883
23.789	712.301
24.01	1411.7
24.231	2495.82
24.452	4518.13
24.673	2205.5
24.894	1511.38
25.115	445.504
25.336	278.43
25.557	383.992
25.778	8.07422
25.999	2.33203
26.22	256.844
26.441	31.9688
26.662	356.438
26.883	211.152
27.104	364.496
27.325	422.973
27.546	200.914
27.767	356.754
27.988	263.672
28.209	147.664
28.43	445.34
28.651	421.394
28.872	523.668
29.093	574.188
29.314	433.746
29.535	597.656
29.756	203.859
29.977	231.512
30.198	349.809
30.419	270.973
30.64	147.551
30.861	146.758
31.082	280.797
31.303	249.293
31.524	52.7461
31.745	139.762
31.966	283.269
32.187	19.8398
32.408	318.867
32.629	457.867
32.85	124.824
33.071	343.102
33.292	578.926
33.513	524.758
33.734	395.41
33.955	290.66
34.176	311.848
34.397	727.871
34.618	525.578
34.839	325.375
35.06	702.988
35.281	449.758
35.502	1197.02
35.723	893.992
35.944	1725.95
36.165	1827.88
36.386	1059.81
36.607	651.727
36.828	1171.61
37.049	1381.34
37.27	807.34
37.491	247.82
37.712	528.91
37.933	43.0273
38.154	346.555
38.375	438.746
38.596	256.519
38.817	95.0195
39.038	147.477
39.259	186.781
39.48	451.508
39.701	64.3828
39.922	48.4453
40.143	41.5859
40.364	13.3398
40.585	88.2188
40.806	339.156
41.027	216.824
41.248	403.668
41.469	158.066
41.69	455.367
41.911	344.859
42.132	935.34
42.353	804.852
42.574	454.57
42.795	325.481
43.016	498.746
43.237	749.832
43.458	499.879
43.679	537.281
43.9	432.504
44.121	214.746
44.342	19.0781
44.563	874.574
44.784	348.562
45.005	122.555
45.226	555.258
45.447	601.816
45.668	229.875
45.889	137.398
46.11	13.832
46.331	577.508
46.552	55.1602
46.773	81.6094
46.994	240.875
47.215	163.867
47.436	242.637
47.657	319.445
47.878	608.129
48.099	184.75
48.32	335.031
48.541	404.621
48.762	59.7617
48.983	380.801
49.204	60.4844
49.425	304.832
49.646	73.7227
49.867	48.582
50.088	232.148
50.309	28.7344
50.53	157.297
50.751	125.699
50.972	544.848
51.193	188.445
51.414	281.383
51.635	162.066
51.856	100.781
52.077	350.039
52.298	595.582
52.519	421.406
52.74	15.875
52.961	328.852
53.182	318.938
53.403	390.609
53.624	287.465
53.845	223.441
54.066	420.016
54.287	665.098
54.508	2.17969
54.729	175.738
54.95	492.93
55.171	432.273
55.392	113.699
55.613	321.113
55.834	434.211
56.055	582.566
56.276	212.305
56.497	424.512
56.718	251.867
56.939	154.871
57.16	317.031
57.381	217.621
57.602	309.617
57.823	60
58.044	297.836
58.265	261.898
58.486	252.562
58.707	603.519
58.928	577.117
59.149	977.387
59.37	971.91
59.591	1396.74
59.812	1505.83
60.033	1786.58
60.254	1825.39
60.475	1901.76
60.696	1619.36
60.917	1230.38
61.138	817.312
61.359	765.148
61.58	533.668
61.801	761.934
62.022	375.918
62.243	545.148
62.464	376.422
62.685	202.82
62.906	7.52344
63.127	315.551
63.348	428.137
63.569	169.887
63.79	257.902
64.011	240.703
64.232	5.93359
64.453	379.906
64.674	114.016
64.895	297.828
65.116	89.6797
65.337	309.051
65.558	269.957
65.779	474.734
66	346.113
66.221	177.098
66.442	362.297
66.663	460.934
66.884	230.203
67.105	200.25
67.326	316.789
67.547	46.8203
67.768	293.094
67.989	422.16
68.21	326.731
68.431	190.559
68.652	154.363
68.873	220.871
69.094	243.43
69.315	380.758
69.536	223.492
69.757	85.4648
69.978	424.832
70.199	142.934
70.42	219.269
70.641	248.617
70.862	425.106
71.083	48.1367
71.304	435.887
71.525	357.066
71.746	167.094
71.967	346.418
72.188	631.523
72.409	628.188
72.63	327.322
72.851	350.072
73.072	351.5
73.293	181.217
73.514	389.955
73.735	47.4414
73.956	206.512
74.177	16.2051
74.398	222.728
74.619	101.598
74.84	119.166
75.061	250.75
75.282	168.812
75.503	101.959
75.724	496.992
75.945	379.289
76.166	425.684
76.387	273.949
76.608	301.248
76.829	229.84
77.05	223.498
77.271	226.772
77.492	275.482
77.713	291.174
77.934	550.668
78.155	194.535
78.376	113.137
78.597	364.172
78.818	452.728
79.039	273.453
79.26	368.055
79.481	489.144
79.702	174.248
79.923	520.408
80.144	63.5781
80.365	397.469
80.586	329.461
80.807	212.978
81.028	214.043
81.249	328.072
81.47	311.182
81.691	410.695
81.912	4.37109
82.133	348.381
82.354	32.0742
82.575	253.092
82.796	189.914
83.017	192.861
83.238	300.889
83.459	345.211
83.68	215.328
83.901	165.435
84.122	110.248
84.343	256.373
84.564	347.834
84.785	339.023
85.006	203.586
85.227	302.176
85.448	175.873
85.669	387.482
85.89	9.50586
86.111	58.0996
86.332	97.043
86.553	392.828
86.774	236.164
86.995	311.346
87.216	77.1465
87.437	16.5215
87.658	122.678
87.879	245.578
88.1	276.678
88.321	304.889
88.542	242.533
88.763	217.254
88.984	525.342
89.205	50.832
89.426	197.85
89.647	198.531
89.868	304.471
