Measurement: Powder, Xray Data XY Processed
Mineral: Zektzerite
Rruff sample: R070485
Ideal chemistry: NaLiZr^4+^Si_6_O_15_
Locality: Washington Pass, Golden Horn Batholith, Okanogan County, Washington, USA
Source: Michael Scott
Description: Pale pink to colorless hexagonal prismatic crystal fragments
Diffraction sample description: Powder
Measured chemistry: Na_1.00_Li_1.00_(Zr_0.97_Ti_0.02_Hf_0.01_)_Î£=1_Si_6.00_O_15_; trace amounts of Al and Fe; Li_2_O estimated by difference
Cell parameters: a: 14.3212(3) b: 17.3469(3) c: 10.1578(3) alpha: 90 beta: 90 gamma: 90 volume: 2523.48(7) crystal system: orthorhombic
x	intensity
5	0
5.22	7.17747
5.44	7.11819
5.66	3.60399
5.88	4.29991
6.1	13.1096
6.32	7.52269
6.54	7.8476
6.76	10.2969
6.98	9.68441
7.2	11.9443
7.42	7.60824
7.64	3.06222
7.86	9.64977
8.08	9.15421
8.3	4.24069
8.52	1.5858
8.74	6.21277
8.96	19.4882
9.18	14.5366
9.4	6.67829
9.62	4.98703
9.84	2.83012
10.06	1.67576
10.28	11.1505
10.5	7.83718
10.72	5.52534
10.94	9.51933
11.16	7.8577
11.38	2.4919
11.6	9.27169
11.82	6.34677
12.04	6.86656
12.26	56.4859
12.48	56.5499
12.7	6.65484
12.92	6.66529
13.14	13.548
13.36	7.77982
13.58	7.47358
13.8	0.24913
14.02	4.60769
14.24	8.50345
14.46	14.0824
14.68	10.288
14.9	12.3196
15.12	4.14986
15.34	11.097
15.56	5.91103
15.78	0.903524
16	36.4694
16.22	7.2099
16.44	10.3138
16.66	8.91759
16.88	3.50364
17.1	4.26981
17.32	3.04888
17.54	1.88574
17.76	6.75139
17.98	7.0858
18.2	65.7435
18.42	77.5666
18.64	10.9597
18.86	5.33121
19.08	8.02882
19.3	27.6718
19.52	3.34426
19.74	1.18177
19.96	15.8505
20.18	57.0663
20.4	78.6865
20.62	19.6135
20.84	7.14413
21.06	5.89012
21.28	21.1054
21.5	328.984
21.72	8.33918
21.94	0.832235
22.16	8.6084
22.38	6.42619
22.6	3.91045
22.82	3.49891
23.04	6.66235
23.26	5.6224
23.48	6.86476
23.7	6.64736
23.92	11.8526
24.14	134.687
24.36	6.45215
24.58	1.70277
24.8	30.3247
25.02	15.3346
25.24	1.72846
25.46	38.4119
25.68	138.672
25.9	6.30671
26.12	1.43851
26.34	8.26956
26.56	4.92306
26.78	1.53703
27	44.9979
27.22	14.5138
27.44	13.8138
27.66	84.7625
27.88	366.966
28.1	20.12
28.32	166.863
28.54	27.0641
28.76	4.16863
28.98	3.44579
29.2	10.8423
29.42	6.20078
29.64	15.4361
29.86	67.6252
30.08	21.9598
30.3	13.5692
30.52	151.816
30.74	38.1083
30.96	110.835
31.18	5.87985
31.4	1.85509
31.62	4.09444
31.84	62.977
32.06	1.08557
32.28	106.925
32.5	16.8176
32.72	7.18394
32.94	20.8287
33.16	22.3034
33.38	30.9957
33.6	171.187
33.82	17.7939
34.04	11.9271
34.26	7.27275
34.48	6.59506
34.7	12.8565
34.92	2.0866
35.14	23.993
35.36	53.6922
35.58	9.58878
35.8	57.4242
36.02	13.5475
36.24	5.72578
36.46	0.79758
36.68	9.93962
36.9	5.14405
37.12	16.4049
37.34	5.77725
37.56	31.7188
37.78	24.137
38	49.6368
38.22	9.25354
38.44	3.7452
38.66	5.45531
38.88	8.47099
39.1	12.3473
39.32	4.3676
39.54	4.00188
39.76	1.34528
39.98	13.7076
40.2	38.9028
40.42	3.22703
40.64	16.0602
40.86	3.29413
41.08	104.78
41.3	4.47686
41.52	0.866806
41.74	9.86399
41.96	17.8678
42.18	25.7565
42.4	19.8919
42.62	2.94272
42.84	7.49415
43.06	5.39854
43.28	16.2661
43.5	3.17667
43.72	21.3305
43.94	12.3342
44.16	26.3006
44.38	13.3257
44.6	11.7251
44.82	0.006096
45.04	10.3569
45.26	4.03745
45.48	43.1754
45.7	5.44488
45.92	6.04375
46.14	16.5501
46.36	10.0169
46.58	1.1456
46.8	8.11334
47.02	18.6862
47.24	1.64078
47.46	11.8555
47.68	24.3921
47.9	40.1762
48.12	14.8205
48.34	2.31415
48.56	30.5465
48.78	1.86716
49	10.0246
49.22	25.6172
49.44	94.6404
49.66	29.8757
49.88	1.06477
50.1	32.036
50.32	3.40697
50.54	6.66721
50.76	7.81533
50.98	80.3149
51.2	16.2619
51.42	28.3823
51.64	5.89024
51.86	4.09739
52.08	11.4073
52.3	4.10563
52.52	11.5037
52.74	64.8786
52.96	39.2331
53.18	6.5279
53.4	10.3471
53.62	20.9051
53.84	1.36017
54.06	3.50902
54.28	5.35746
54.5	33.8909
54.72	8.09251
54.94	4.45229
55.16	19.0261
55.38	42.8321
55.6	28.5054
55.82	8.34582
56.04	8.94177
56.26	10.8216
56.48	5.40923
56.7	28.6682
56.92	28.3647
57.14	7.855
57.36	15.4854
57.58	45.2128
57.8	2.62285
58.02	3.94907
58.24	6.02854
58.46	4.87051
58.68	2.59933
58.9	8.5306
59.12	16.3049
59.34	19.0003
59.56	4.52158
59.78	8.48411
60	8.15114
60.22	6.79099
60.44	15.6742
60.66	38.5312
60.88	12.9567
61.1	15.2109
61.32	8.49373
61.54	2.43436
61.76	3.21877
61.98	3.72274
62.2	14.4542
62.42	34.2914
62.64	47.4043
62.86	18.5097
63.08	5.7446
63.3	3.53771
63.52	19.726
63.74	50.6583
63.96	29.5917
64.18	8.21691
64.4	1.2957
64.62	3.80136
64.84	1.74776
65.06	24.9556
65.28	14.2661
65.5	1.26729
65.72	1.76704
65.94	12.9526
66.16	2.90317
66.38	11.9788
66.6	9.48026
66.82	26.7185
67.04	6.5766
67.26	27.6422
67.48	29.5376
67.7	7.48116
67.92	1.97149
68.14	26.5608
68.36	15.4644
68.58	10.4933
68.8	13.5333
69.02	2.00745
69.24	1.98594
69.46	24.0003
69.68	28.897
69.9	18.5818
70.12	7.47816
70.34	5.49771
70.56	9.34392
70.78	35.3987
71	34.6272
71.22	8.9388
71.44	5.17186
71.66	2.29884
71.88	8.66072
72.1	9.14129
72.32	3.88567
72.54	8.01532
72.76	10.1347
72.98	3.32581
73.2	8.73126
73.42	1.09137
73.64	8.63334
73.86	3.08785
74.08	20.4223
74.3	7.5495
74.52	1.55608
74.74	5.27147
74.96	2.48589
75.18	6.53415
75.4	9.34428
75.62	9.98369
75.84	10.7375
76.06	7.12198
76.28	0.346936
76.5	6.27142
76.72	7.01278
76.94	11.9416
77.16	9.88691
77.38	1.48886
77.6	9.20474
77.82	1.38982
78.04	7.33985
78.26	4.50753
78.48	8.59425
78.7	2.53032
78.92	11.4871
79.14	0.609097
79.36	11.3758
79.58	8.16921
79.8	20.111
80.02	22.988
80.24	2.82634
80.46	1.22245
80.68	0.325945
80.9	9.51902
81.12	6.14094
81.34	24.8327
81.56	4.18839
81.78	4.8641
82	27.9583
82.22	15.1879
82.44	1.26609
82.66	2.7482
82.88	8.71188
83.1	13.4388
83.32	14.2851
83.54	11.7823
83.76	19.1692
83.98	4.79287
84.2	6.2261
84.42	11.4338
84.64	16.7087
84.86	17.6584
85.08	6.45517
85.3	2.74955
85.52	0.899798
85.74	1.98355
85.96	11.0268
86.18	8.06839
86.4	2.17
86.62	8.12171
86.84	12.8844
87.06	31.7079
87.28	3.44255
87.5	7.29798
87.72	8.04343
87.94	1.70438
88.16	2.38713
88.38	7.55333
88.6	20.7087
88.82	0.12369
89.04	10.9548
89.26	6.5353
89.48	13.7941
89.7	11.7184
89.92	15.1179
