Measurement: Powder, Xray Data XY Processed
Mineral: Zeophyllite
Rruff sample: R060150
Ideal chemistry: Ca_13_Si_10_O_28_(OH)_2_F_8_6H_2_O
Locality: Radzein, near Teplitz, Bohemia, Czech Republic
Source: University of Arizona Mineral Museum
Description: Spherical aggregates of white platy crystals
Diffraction sample description: Powder
Measured chemistry: (Ca_12.67_Al_0.33_)_Σ=13_(Si_9.67_Al_0.33_)_10_O_28_F_10_·6H_2_O
Cell parameters: a: 9.3699(6) b: 9.3699(6) c: 36.515(3) alpha: 90 beta: 90 gamma: 120 volume: 2776.3(0) crystal system: hexagonal
x	intensity
5	0
5.22	17.576
5.44	3.287
5.66	3.797
5.88	0.051
6.1	0.717
6.32	15.143
6.54	36.019
6.76	15.139
6.98	45.026
7.2	547.176
7.42	130.868
7.64	14.883
7.86	1.276
8.08	11.515
8.3	6.986
8.52	9.687
8.74	1.469
8.96	5.189
9.18	1.247
9.4	6.234
9.62	0.321
9.84	0.391
10.06	0.378
10.28	6.809
10.5	0.115
10.72	1.962
10.94	4.067
11.16	2.391
11.38	7.711
11.6	4.962
11.82	1.621
12.04	2.863
12.26	0.176
12.48	5.602
12.7	0.295
12.92	5.943
13.14	10.767
13.36	1.513
13.58	1.409
13.8	5.194
14.02	2.034
14.24	6.944
14.46	46.853
14.68	71.887
14.9	12.958
15.12	0.116
15.34	1.128
15.56	1.448
15.78	0.868
16	3.274
16.22	5.473
16.44	4.735
16.66	2.127
16.88	1.301
17.1	0.021
17.32	2.352
17.54	1.223
17.76	2.586
17.98	0.474
18.2	4.401
18.42	1.405
18.64	5.386
18.86	3.332
19.08	2.097
19.3	1.993
19.52	1.069
19.74	0.023
19.96	0.029
20.18	5.016
20.4	1.044
20.62	0.147
20.84	0.703
21.06	2.623
21.28	0.439
21.5	0.08
21.72	5.536
21.94	126.66
22.16	8.619
22.38	19.441
22.6	5.507
22.82	3.393
23.04	0.209
23.26	1.575
23.48	2.668
23.7	0.994
23.92	13.26
24.14	11.135
24.36	6.103
24.58	2.045
24.8	3.119
25.02	0.437
25.24	2.528
25.46	1.473
25.68	3.267
25.9	0.089
26.12	2.066
26.34	0.887
26.56	2.846
26.78	24.323
27	0.18
27.22	0.527
27.44	1.82
27.66	2.333
27.88	33.762
28.1	1.241
28.32	1.713
28.54	4.787
28.76	0.188
28.98	27.123
29.2	65.035
29.42	239.697
29.64	9.463
29.86	0.018
30.08	0.381
30.3	1.621
30.52	11.018
30.74	37.469
30.96	12.292
31.18	0.035
31.4	1.21
31.62	16.687
31.84	8.277
32.06	0.622
32.28	4.961
32.5	0.9
32.72	4.402
32.94	8.397
33.16	8.606
33.38	0.295
33.6	3.28
33.82	45.061
34.04	7.81
34.26	1.74
34.48	0.975
34.7	0.342
34.92	2.703
35.14	7.93
35.36	17.198
35.58	6.404
35.8	0.302
36.02	2.22
36.24	3.418
36.46	0.962
36.68	2.223
36.9	18.387
37.12	12.279
37.34	3.869
37.56	1.836
37.78	1.955
38	0.599
38.22	7.512
38.44	17.889
38.66	5.967
38.88	3.413
39.1	2.993
39.32	0.357
39.54	1.537
39.76	1.823
39.98	4.474
40.2	13.087
40.42	6.09
40.64	2.976
40.86	0.431
41.08	6.014
41.3	12.408
41.52	3.973
41.74	9.681
41.96	9.996
42.18	2.758
42.4	0.066
42.62	0.053
42.84	1.934
43.06	0.287
43.28	4.228
43.5	4.095
43.72	46.593
43.94	12.895
44.16	4.142
44.38	0.052
44.6	21.796
44.82	15.91
45.04	1.212
45.26	0.368
45.48	3.545
45.7	10.872
45.92	5.075
46.14	1.207
46.36	2.244
46.58	3.734
46.8	0.712
47.02	9.041
47.24	1.227
47.46	6.106
47.68	0.03
47.9	1.448
48.12	2.172
48.34	2.111
48.56	5.228
48.78	12.152
49	55.107
49.22	11.927
49.44	0.289
49.66	1.63
49.88	6.146
50.1	5.686
50.32	0.052
50.54	3.971
50.76	0.249
50.98	0.35
51.2	0.618
51.42	4.472
51.64	15.346
51.86	8.202
52.08	9.201
52.3	11.448
52.52	0.91
52.74	9.862
52.96	4.035
53.18	3.331
53.4	0.024
53.62	9.007
53.84	2.617
54.06	3.913
54.28	3.238
54.5	3.144
54.72	1.846
54.94	3.033
55.16	3.161
55.38	1.134
55.6	1.992
55.82	3.934
56.04	0.09
56.26	3.436
56.48	4.391
56.7	8.325
56.92	8.394
57.14	0.619
57.36	0.147
57.58	3.974
57.8	0.173
58.02	4.332
58.24	2.328
58.46	0.205
58.68	3.9
58.9	0.236
59.12	2.639
59.34	11.274
59.56	3.78
59.78	3.41
60	3.259
60.22	4.183
60.44	1.372
60.66	2.578
60.88	5.975
61.1	5.412
61.32	0.694
61.54	1.183
61.76	4.181
61.98	0.26
62.2	0.222
62.42	1.313
62.64	0.229
62.86	3.837
63.08	0.344
63.3	0.661
63.52	5.611
63.74	14.654
63.96	8.649
64.18	0.866
64.4	0.219
64.62	1.299
64.84	2.405
65.06	5.537
65.28	3.588
65.5	2.693
65.72	0.02
65.94	0.204
66.16	1.933
66.38	2.107
66.6	4.802
66.82	0.404
67.04	7.383
67.26	3.355
67.48	5.624
67.7	14.944
67.92	2.18
68.14	3.331
68.36	3.454
68.58	0.608
68.8	1.447
69.02	3.772
69.24	1.823
69.46	0.856
69.68	0.866
69.9	4.765
70.12	3.64
70.34	5.548
70.56	9.528
70.78	0.758
71	6.725
71.22	0.722
71.44	0.115
71.66	2.567
71.88	0.098
72.1	1.731
72.32	0.618
72.54	0.743
72.76	6.703
72.98	0.073
73.2	3.696
73.42	2.627
73.64	3.716
73.86	3.897
74.08	0.165
74.3	0.065
74.52	6.634
74.74	5.879
74.96	2.799
75.18	1.751
75.4	0.094
75.62	1.578
75.84	1.534
76.06	0.062
76.28	3.247
76.5	0.128
76.72	6.894
76.94	1.838
77.16	9.522
77.38	3.691
77.6	1.77
77.82	2.871
78.04	1.949
78.26	5.175
78.48	2.391
78.7	2.291
78.92	1.143
79.14	2.894
79.36	1.782
79.58	0.342
79.8	6.462
80.02	5.447
80.24	2.373
80.46	1.271
80.68	1.904
80.9	4.832
81.12	1.835
81.34	0.009
81.56	7.037
81.78	2.359
82	0.293
82.22	1.474
82.44	0.261
82.66	4.35
82.88	2.316
83.1	0.15
83.32	5.492
83.54	0.151
83.76	5.71
83.98	5.755
84.2	5.601
84.42	7.685
84.64	2.78
84.86	0.788
85.08	0.108
85.3	0.907
85.52	1.747
85.74	1.704
85.96	1.628
86.18	1.528
86.4	6.937
86.62	3.916
86.84	7.878
87.06	5.672
87.28	0.284
87.5	1.636
87.72	1.681
87.94	0.154
88.16	5.443
88.38	0.306
88.6	1.17
88.82	5.907
89.04	14.667
89.26	7.413
89.48	1.24
89.7	0.099
89.92	2.733
