Measurement: Powder, Xray Data XY Processed
Mineral: Zincite
Rruff sample: R060027
Ideal chemistry: Zn^2+^O
Locality: synthetic
Source: Jacque Reynard, Greg Schmidt
Description: Colorless prismatic crystal
Diffraction sample description: Powder
Measured chemistry: Zn_1.00_O
Cell parameters: a: 3.25035(6) b: 3.25035(6) c: 5.2074(1) alpha: 90 beta: 90 gamma: 120 volume: 47.645(2) crystal system: hexagonal
x	intensity
5	0
5.22	2.266
5.44	9.374
5.66	5.677
5.88	6.953
6.1	7.307
6.32	6.917
6.54	11.583
6.76	4.18
6.98	8.664
7.2	5.218
7.42	9.031
7.64	10.779
7.86	9.251
8.08	14.527
8.3	9.656
8.52	3.87
8.74	2.292
8.96	4.509
9.18	3.879
9.4	7.994
9.62	7.094
9.84	0.897
10.06	1.068
10.28	4.923
10.5	2.679
10.72	1.555
10.94	4.633
11.16	2.237
11.38	2.984
11.6	2.632
11.82	6.398
12.04	2.422
12.26	2.179
12.48	0.958
12.7	4.296
12.92	7.171
13.14	3.029
13.36	1.926
13.58	1.914
13.8	5.074
14.02	10.202
14.24	6.428
14.46	3.489
14.68	3.914
14.9	4.179
15.12	4.401
15.34	13.632
15.56	11.686
15.78	1.788
16	5.171
16.22	3.207
16.44	2.424
16.66	7.402
16.88	3.286
17.1	4.946
17.32	4.098
17.54	1.193
17.76	6.157
17.98	4.087
18.2	7.013
18.42	2.004
18.64	4.866
18.86	0.237
19.08	0.282
19.3	3.662
19.52	8.656
19.74	4.457
19.96	7.705
20.18	2.678
20.4	4.688
20.62	4.911
20.84	0.175
21.06	1.073
21.28	5.019
21.5	2.039
21.72	6.063
21.94	7.047
22.16	0.017
22.38	8.872
22.6	4.882
22.82	4.966
23.04	0.265
23.26	4.83
23.48	7.029
23.7	8.993
23.92	13.269
24.14	3.361
24.36	6.392
24.58	10.272
24.8	4.231
25.02	6.191
25.24	13.011
25.46	3.005
25.68	5.888
25.9	6.389
26.12	0.017
26.34	4.839
26.56	2.836
26.78	0.227
27	5.003
27.22	10.946
27.44	5.843
27.66	5.75
27.88	0.72
28.1	14.656
28.32	6.857
28.54	2.783
28.76	15.05
28.98	5.997
29.2	7.195
29.42	15.676
29.64	3.812
29.86	4.904
30.08	0.182
30.3	5.42
30.52	1.954
30.74	8.398
30.96	5.85
31.18	11.272
31.4	27.067
31.62	109.749
31.84	1077.93
32.06	147.416
32.28	13.574
32.5	8.223
32.72	17.969
32.94	9.143
33.16	2.282
33.38	11.206
33.6	2.918
33.82	7.211
34.04	12.698
34.26	49.321
34.48	698.559
34.7	93.893
34.92	10.963
35.14	0.202
35.36	7.949
35.58	6.339
35.8	26.07
36.02	87.362
36.24	821.111
36.46	520.02
36.68	93.294
36.9	7.857
37.12	5.451
37.34	2.195
37.56	3.561
37.78	4.831
38	9.847
38.22	4.324
38.44	12.402
38.66	5.983
38.88	8.604
39.1	6.432
39.32	2.73
39.54	9.312
39.76	1.726
39.98	3.461
40.2	6.525
40.42	8.529
40.64	0.545
40.86	7.579
41.08	10.159
41.3	6.412
41.52	2.512
41.74	7.277
41.96	13.343
42.18	6.263
42.4	1.383
42.62	6.536
42.84	1.755
43.06	9.124
43.28	10.272
43.5	12.426
43.72	0.466
43.94	8.699
44.16	3.809
44.38	3.879
44.6	7.693
44.82	5.766
45.04	12.524
45.26	0.888
45.48	9.184
45.7	5.67
45.92	3.541
46.14	5.835
46.36	1.843
46.58	2.513
46.8	6.814
47.02	2.345
47.24	20.768
47.46	93.531
47.68	181.736
47.9	49.591
48.12	13.817
48.34	10.326
48.56	4.987
48.78	0.236
49	9.366
49.22	4.868
49.44	6.564
49.66	7.011
49.88	1.254
50.1	7.1
50.32	4.336
50.54	11.733
50.76	16.723
50.98	7.712
51.2	3.536
51.42	7.541
51.64	7.902
51.86	9.046
52.08	8.254
52.3	3.517
52.52	3.756
52.74	15.576
52.96	2.358
53.18	5.194
53.4	1.035
53.62	7.026
53.84	1.89
54.06	6.887
54.28	5.315
54.5	5.645
54.72	2.631
54.94	5.425
55.16	8.267
55.38	4.103
55.6	3.43
55.82	9.349
56.04	14.23
56.26	35.992
56.48	129.306
56.7	339.049
56.92	117.009
57.14	28.318
57.36	22.967
57.58	1.473
57.8	11.408
58.02	0.269
58.24	5.812
58.46	4.093
58.68	0.781
58.9	2.846
59.12	5.619
59.34	1.619
59.56	5.969
59.78	7.692
60	9.271
60.22	6.806
60.44	12.596
60.66	8.189
60.88	9.083
61.1	6.362
61.32	8.466
61.54	12.093
61.76	7.664
61.98	1.876
62.2	10.144
62.42	14.534
62.64	48.227
62.86	202.837
63.08	175.371
63.3	48.153
63.52	17.614
63.74	7.826
63.96	13.035
64.18	3.877
64.4	6.525
64.62	6.55
64.84	11.975
65.06	2.054
65.28	7.524
65.5	6.361
65.72	1.433
65.94	11.948
66.16	12.513
66.38	38.512
66.6	40.996
66.82	24.2
67.04	6.723
67.26	3.582
67.48	9.122
67.7	44.893
67.92	149.037
68.14	145.538
68.36	36.768
68.58	9.652
68.8	34.424
69.02	57.574
69.24	64.299
69.46	40.591
69.68	5.697
69.9	5.816
70.12	2.813
70.34	2.149
70.56	3.935
70.78	6.255
71	2.432
71.22	8.148
71.44	5.582
71.66	2.673
71.88	4.408
72.1	0.616
72.32	5.692
72.54	30.391
72.76	21.766
72.98	2.769
73.2	9.038
73.42	4.321
73.64	3.601
73.86	0.357
74.08	8.906
74.3	5.144
74.52	7.303
74.74	10.23
74.96	2.267
75.18	8.124
75.4	12.932
75.62	9.71
75.84	5.375
76.06	6.837
76.28	3.306
76.5	12.861
76.72	11.844
76.94	24.515
77.16	38.626
77.38	14.63
77.6	4.603
77.82	6.858
78.04	10.119
78.26	1.536
78.48	2.873
78.7	8.309
78.92	8.724
79.14	9.064
79.36	13.206
79.58	1.441
79.8	5.386
80.02	5.366
80.24	11.256
80.46	5.172
80.68	5.917
80.9	6.943
81.12	11.752
81.34	20.728
81.56	7.389
81.78	16.282
82	11.237
82.22	0.237
82.44	2.762
82.66	6.367
82.88	0.596
83.1	3.478
83.32	4.396
83.54	1.583
83.76	10.508
83.98	6.557
84.2	6.471
84.42	2.526
84.64	7.578
84.86	2.657
85.08	5.736
85.3	6.959
85.52	8.087
85.74	6.032
85.96	0.834
86.18	2.87
86.4	1.95
86.62	7.095
86.84	5.132
87.06	7.297
87.28	9.424
87.5	6.561
87.72	7.191
87.94	10.535
88.16	7.9
88.38	4.44
88.6	5.072
88.82	8.201
89.04	2.351
89.26	6.258
89.48	21.203
89.7	21.08
89.92	14.469
