Measurement: Powder, Xray Data XY Processed
Mineral: Zincite
Rruff sample: R050419
Ideal chemistry: Zn^2+^O
Locality: Sterling Hill, Sussex County, New Jersey, USA
Source: Marcus Origlieri
Description: Deep red crystal associated with calcite
Diffraction sample description: Powder
Measured chemistry: (Zn_0.99_Mn_0.01_)O
Cell parameters: a: 3.25491(8) b: 3.25491(8) c: 5.2119(2) alpha: 90 beta: 90 gamma: 120 volume: 47.819(2) crystal system: hexagonal
x	intensity
5	0
5.22	3.84422
5.44	6.4798
5.66	4.55934
5.88	0.206945
6.1	2.68123
6.32	6.97593
6.54	1.98571
6.76	12.3495
6.98	0.298296
7.2	10.2099
7.42	10.9098
7.64	19.0465
7.86	15.2778
8.08	19.7817
8.3	23.6694
8.52	11.4337
8.74	0.001958
8.96	1.2533
9.18	8.27021
9.4	0.745051
9.62	11.2842
9.84	12.6266
10.06	9.57079
10.28	10.7637
10.5	5.69937
10.72	1.93643
10.94	7.81396
11.16	2.71005
11.38	7.30457
11.6	4.0622
11.82	10.0967
12.04	7.70171
12.26	1.48139
12.48	7.30033
12.7	3.0069
12.92	4.83408
13.14	6.79883
13.36	3.88195
13.58	3.85045
13.8	6.21874
14.02	3.37692
14.24	4.30331
14.46	10.7334
14.68	8.34188
14.9	7.5201
15.12	10.8488
15.34	12.4684
15.56	1.73665
15.78	6.97608
16	0.048023
16.22	6.32569
16.44	6.43746
16.66	14.4403
16.88	0.094871
17.1	3.53859
17.32	1.46145
17.54	4.11599
17.76	1.78519
17.98	5.60161
18.2	14.4059
18.42	0.459071
18.64	6.30522
18.86	2.5711
19.08	11.4511
19.3	13.147
19.52	4.63945
19.74	2.80844
19.96	3.27096
20.18	8.51367
20.4	0.699089
20.62	11.15
20.84	7.1993
21.06	7.37112
21.28	13.3181
21.5	7.07094
21.72	4.77689
21.94	2.72346
22.16	7.61105
22.38	4.20939
22.6	4.90448
22.82	11.0094
23.04	19.9036
23.26	14.9479
23.48	10.9971
23.7	0.059074
23.92	13.9751
24.14	7.98675
24.36	1.78161
24.58	7.79551
24.8	5.17744
25.02	0.347076
25.24	9.96749
25.46	10.827
25.68	3.83813
25.9	7.57043
26.12	6.4879
26.34	12.4398
26.56	5.362
26.78	3.28802
27	1.54583
27.22	21.0896
27.44	3.8149
27.66	11.7558
27.88	6.07615
28.1	2.76042
28.32	6.93887
28.54	4.22336
28.76	10.9607
28.98	10.0285
29.2	7.14945
29.42	7.80741
29.64	2.82161
29.86	5.41748
30.08	2.56684
30.3	3.28608
30.52	1.11436
30.74	7.82751
30.96	21.4854
31.18	2.67385
31.4	30.6206
31.62	106.493
31.84	1360.47
32.06	56.8517
32.28	17.3447
32.5	11.5412
32.72	7.89282
32.94	0.258541
33.16	4.20152
33.38	3.0445
33.6	9.73228
33.82	3.50486
34.04	12.892
34.26	38.929
34.48	468.324
34.7	43.0651
34.92	10.0714
35.14	6.52739
35.36	10.9805
35.58	15.8938
35.8	15.1611
36.02	58.0097
36.24	1922.01
36.46	126.774
36.68	28.3045
36.9	8.93011
37.12	4.63694
37.34	5.75905
37.56	6.07804
37.78	2.06325
38	1.71357
38.22	6.71373
38.44	2.22062
38.66	0.835676
38.88	4.74144
39.1	8.18625
39.32	11.3134
39.54	11.4164
39.76	8.28096
39.98	5.50217
40.2	8.5663
40.42	7.73113
40.64	6.99628
40.86	8.08354
41.08	1.55812
41.3	11.3902
41.52	9.29898
41.74	8.22852
41.96	0.600283
42.18	13.3814
42.4	7.12259
42.62	3.97478
42.84	9.30204
43.06	9.34642
43.28	5.99474
43.5	7.90343
43.72	7.3815
43.94	4.72345
44.16	7.79378
44.38	15.1023
44.6	18.3453
44.82	20.3379
45.04	7.4296
45.26	11.9774
45.48	6.56339
45.7	8.70604
45.92	0.601638
46.14	1.86401
46.36	0.73089
46.58	7.63105
46.8	2.99435
47.02	7.59411
47.24	23.7175
47.46	124.697
47.68	90.9751
47.9	3.29224
48.12	0.632322
48.34	10.5335
48.56	8.80649
48.78	3.05871
49	3.61351
49.22	7.19035
49.44	6.35941
49.66	17.0392
49.88	4.97464
50.1	16.8183
50.32	6.07788
50.54	5.11668
50.76	22.1868
50.98	4.23939
51.2	10.5156
51.42	2.25487
51.64	4.09411
51.86	6.00078
52.08	7.22941
52.3	4.19701
52.52	10.0296
52.74	9.49133
52.96	6.28767
53.18	4.38615
53.4	1.2209
53.62	10.9112
53.84	7.95295
54.06	6.73521
54.28	0.88991
54.5	17.4104
54.72	0.320436
54.94	9.86861
55.16	11.388
55.38	5.27014
55.6	1.63683
55.82	0.540163
56.04	9.00347
56.26	38.2415
56.48	642.86
56.7	821.826
56.92	43.1335
57.14	12.1632
57.36	15.7356
57.58	7.49093
57.8	14.5015
58.02	12.3324
58.24	1.17118
58.46	6.92509
58.68	4.79203
58.9	7.4509
59.12	6.19586
59.34	20.3934
59.56	3.85233
59.78	0.118891
60	5.89842
60.22	5.50886
60.44	8.52574
60.66	8.07538
60.88	6.97281
61.1	2.71131
61.32	9.10977
61.54	5.16881
61.76	3.80818
61.98	3.35917
62.2	8.07914
62.42	5.70592
62.64	66.8107
62.86	286.779
63.08	89.7652
63.3	23.0102
63.52	5.92431
63.74	0.44562
63.96	6.11071
64.18	2.64471
64.4	11.9493
64.62	10.0972
64.84	5.32284
65.06	12.1098
65.28	1.32137
65.5	10.0751
65.72	4.2244
65.94	12.4732
66.16	34.9174
66.38	57.0607
66.6	15.9648
66.82	0.96789
67.04	2.96805
67.26	6.0417
67.48	18.095
67.7	36.3495
67.92	385.799
68.14	117.879
68.36	21.658
68.58	0.042372
68.8	24.8975
69.02	178.407
69.24	71.6679
69.46	9.15681
69.68	1.76515
69.9	4.1725
70.12	8.47421
70.34	4.68076
70.56	7.99159
70.78	1.37588
71	7.91063
71.22	1.73942
71.44	4.16326
71.66	0.908257
71.88	0.563702
72.1	3.60921
72.32	6.47063
72.54	31.5903
72.76	7.63217
72.98	2.12375
73.2	15.5823
73.42	7.89602
73.64	11.2139
73.86	6.63731
74.08	4.0958
74.3	1.17837
74.52	8.5178
74.74	12.5954
74.96	3.42396
75.18	2.09524
75.4	9.61905
75.62	12.255
75.84	11.0389
76.06	14.8299
76.28	13.6055
76.5	0.52724
76.72	10.5904
76.94	22.4688
77.16	16.5885
77.38	4.1562
77.6	1.10687
77.82	12.2487
78.04	12.4181
78.26	6.78846
78.48	2.2173
78.7	7.2051
78.92	10.0676
79.14	2.06835
79.36	6.14747
79.58	9.13046
79.8	5.79369
80.02	2.73639
80.24	9.71381
80.46	2.66404
80.68	3.43093
80.9	9.44658
81.12	7.58227
81.34	18.8742
81.56	7.78334
81.78	8.92617
82	4.34205
82.22	1.60948
82.44	11.4783
82.66	9.53195
82.88	5.80372
83.1	2.09981
83.32	3.7999
83.54	6.0286
83.76	10.5855
83.98	11.5191
84.2	5.56502
84.42	8.13339
84.64	1.63279
84.86	0.469879
85.08	13.5556
85.3	5.4646
85.52	4.4082
85.74	11.7429
85.96	12.5772
86.18	6.72844
86.4	4.12865
86.62	10.145
86.84	11.2461
87.06	3.09619
87.28	8.10662
87.5	12.3103
87.72	9.35514
87.94	12.6633
88.16	3.61461
88.38	5.84173
88.6	5.55715
88.82	2.15411
89.04	6.69413
89.26	5.53671
89.48	66.0207
89.7	29.7452
89.92	13.5414
