Measurement: Powder, Xray Data XY Processed
Mineral: Zincite
Rruff sample: R050492
Ideal chemistry: Zn^2+^O
Locality: Franklin, Sussex County, New Jersey, USA
Source: California Institute of Technology
Description: Deep red massive
Diffraction sample description: Powder
Measured chemistry: (Zn_0.96_Mn_0.04_)_Î£=1_O
Cell parameters: a: 3.2538(1) b: 3.2538(1) c: 5.2100(2) alpha: 90. beta: 90. gamma: 120. volume: 47.772(3) crystal system: hexagonal
x	intensity
5	0
5.22	12.3866
5.44	9.01776
5.66	9.35071
5.88	6.79806
6.1	12.4631
6.32	1.827
6.54	9.01728
6.76	10.6262
6.98	11.084
7.2	8.07576
7.42	10.7269
7.64	15.603
7.86	6.15873
8.08	25.2587
8.3	1.63823
8.52	9.25777
8.74	3.86871
8.96	1.30836
9.18	1.64919
9.4	12.0219
9.62	5.13493
9.84	15.5843
10.06	6.81449
10.28	19.5852
10.5	0.352263
10.72	3.97614
10.94	8.47158
11.16	11.4303
11.38	9.3292
11.6	12.2456
11.82	6.10398
12.04	11.2453
12.26	7.9672
12.48	11.5465
12.7	9.3484
12.92	9.22227
13.14	2.53558
13.36	0.562756
13.58	16.4793
13.8	14.2999
14.02	15.2937
14.24	11.4477
14.46	7.34923
14.68	4.65046
14.9	0.056702
15.12	11.2806
15.34	10.37
15.56	9.61907
15.78	12.7023
16	2.52446
16.22	2.58738
16.44	4.77697
16.66	10.4739
16.88	5.69864
17.1	11.5681
17.32	1.44535
17.54	2.22514
17.76	5.34023
17.98	6.10447
18.2	8.98372
18.42	8.70617
18.64	12.373
18.86	1.87864
19.08	7.71674
19.3	0.338783
19.52	6.21629
19.74	7.18606
19.96	12.2854
20.18	3.29936
20.4	13.3172
20.62	3.57257
20.84	1.18961
21.06	9.91003
21.28	6.0175
21.5	4.39989
21.72	12.4179
21.94	7.61832
22.16	8.33907
22.38	6.33433
22.6	3.19111
22.82	0.346301
23.04	10.9706
23.26	4.00924
23.48	9.55378
23.7	3.50035
23.92	11.4403
24.14	9.74748
24.36	14.5586
24.58	4.5671
24.8	8.38396
25.02	10.0711
25.24	3.95877
25.46	15.9394
25.68	13.7634
25.9	2.41917
26.12	10.3106
26.34	10.2401
26.56	4.20159
26.78	11.0611
27	2.07677
27.22	21.9019
27.44	2.85047
27.66	13.6759
27.88	3.40483
28.1	5.41824
28.32	0.944658
28.54	17.2566
28.76	11.99
28.98	1.71036
29.2	3.59722
29.42	9.69173
29.64	8.48172
29.86	3.80501
30.08	5.81812
30.3	5.79045
30.52	7.47292
30.74	6.22044
30.96	17.4887
31.18	12.1456
31.4	42.8019
31.62	204.589
31.84	502.205
32.06	81.3578
32.28	30.3461
32.5	15.8965
32.72	11.4483
32.94	10.3214
33.16	4.78024
33.38	11.0444
33.6	5.90376
33.82	5.53937
34.04	26.6511
34.26	117.111
34.48	617.092
34.7	58.991
34.92	9.58802
35.14	2.53856
35.36	13.5223
35.58	8.19114
35.8	41.2501
36.02	165.128
36.24	1223.76
36.46	279.113
36.68	68.0211
36.9	20.5333
37.12	3.16703
37.34	13.5376
37.56	26.7333
37.78	22.3325
38	19.2654
38.22	9.44353
38.44	12.6668
38.66	8.86707
38.88	11.5868
39.1	11.9257
39.32	18.5399
39.54	12.6466
39.76	30.8974
39.98	3.01394
40.2	16.4753
40.42	7.45296
40.64	8.78526
40.86	11.9262
41.08	29.3483
41.3	5.3276
41.52	1.45775
41.74	6.55223
41.96	12.5949
42.18	2.87667
42.4	11.0886
42.62	8.71114
42.84	0.252325
43.06	3.44546
43.28	4.7425
43.5	0.459862
43.72	21.7153
43.94	5.03896
44.16	9.16361
44.38	3.67632
44.6	1.40282
44.82	17.4563
45.04	17.7474
45.26	7.54058
45.48	0.207214
45.7	13.9106
45.92	3.18718
46.14	4.26899
46.36	4.19769
46.58	5.16106
46.8	8.86414
47.02	4.19447
47.24	28.5374
47.46	134.075
47.68	124.683
47.9	26.8853
48.12	10.0233
48.34	8.72638
48.56	7.20931
48.78	16.879
49	12.8246
49.22	4.30402
49.44	3.7125
49.66	10.1249
49.88	9.52673
50.1	2.98341
50.32	16.7842
50.54	16.1932
50.76	9.98845
50.98	13.295
51.2	12.8615
51.42	11.8772
51.64	5.32479
51.86	10.2311
52.08	4.91228
52.3	10.3509
52.52	10.4128
52.74	11.6531
52.96	6.07822
53.18	15.4856
53.4	0.163567
53.62	11.3708
53.84	6.97214
54.06	8.27269
54.28	8.33338
54.5	13.1087
54.72	6.77161
54.94	5.5084
55.16	1.93466
55.38	6.79332
55.6	2.83765
55.82	10.8459
56.04	26.1559
56.26	69.4129
56.48	219.223
56.7	205.413
56.92	62.9657
57.14	16.0333
57.36	4.90322
57.58	10.2369
57.8	4.36126
58.02	0.606476
58.24	2.26175
58.46	11.2329
58.68	11.7701
58.9	8.22073
59.12	17.5919
59.34	8.69736
59.56	4.45268
59.78	5.4458
60	6.98769
60.22	8.8507
60.44	11.8295
60.66	17.086
60.88	3.39195
61.1	5.79211
61.32	8.85844
61.54	10.5039
61.76	11.386
61.98	7.22214
62.2	6.43231
62.42	26.6887
62.64	81.0877
62.86	232.86
63.08	121.544
63.3	22.1111
63.52	4.87448
63.74	22.1154
63.96	0.319332
64.18	10.2666
64.4	11.3353
64.62	7.91852
64.84	5.43348
65.06	18.5136
65.28	4.79462
65.5	3.10401
65.72	13.8358
65.94	10.0991
66.16	28.3372
66.38	23.9684
66.6	5.47356
66.82	4.39524
67.04	3.7128
67.26	11.8615
67.48	14.2404
67.7	64.0499
67.92	159.296
68.14	93.9625
68.36	6.34535
68.58	7.18173
68.8	22.9462
69.02	79.9366
69.24	56.5983
69.46	19.9319
69.68	12.3253
69.9	4.80436
70.12	6.94421
70.34	11.3208
70.56	1.95632
70.78	2.43369
71	11.5791
71.22	5.87218
71.44	9.43693
71.66	5.72488
71.88	16.5495
72.1	13.3416
72.32	14.198
72.54	24.8954
72.76	19.4616
72.98	14.3272
73.2	7.61581
73.42	10.9864
73.64	6.29237
73.86	2.95855
74.08	7.45841
74.3	4.69982
74.52	4.81484
74.74	8.09205
74.96	2.56464
75.18	4.63545
75.4	0.28517
75.62	2.95804
75.84	5.37807
76.06	10.0558
76.28	14.358
76.5	11.1976
76.72	26.9357
76.94	25.1766
77.16	22.0667
77.38	19.2336
77.6	11.7804
77.82	15.0441
78.04	5.45379
78.26	2.9139
78.48	2.74843
78.7	4.50203
78.92	7.81586
79.14	9.19525
79.36	7.21644
79.58	5.78998
79.8	4.23873
80.02	10.7915
80.24	16.6438
80.46	0.640734
80.68	13.992
80.9	7.18009
81.12	14.0046
81.34	25.1627
81.56	16.9743
81.78	13.7729
82	2.07801
82.22	12.4987
82.44	17.8208
82.66	5.93555
82.88	11.1697
83.1	6.35509
83.32	16.4643
83.54	13.5846
83.76	9.20723
83.98	13.2363
84.2	4.36631
84.42	15.2486
84.64	7.50384
84.86	8.44464
85.08	5.75823
85.3	8.75897
85.52	5.9592
85.74	19.0592
85.96	12.1506
86.18	5.57313
86.4	7.06027
86.62	12.5084
86.84	3.61203
87.06	2.17434
87.28	1.32192
87.5	8.93409
87.72	2.2392
87.94	6.39787
88.16	12.6726
88.38	10.6784
88.6	4.45732
88.82	3.18668
89.04	12.4866
89.26	12.6264
89.48	39.3753
89.7	12.6454
89.92	17.4055
