Measurement: Powder, Xray Data XY Processed
Mineral: Zinkenite
Rruff sample: R060186
Ideal chemistry: Pb^2+^_9_Sb^3+^_22_S^2-^_42_
Locality: Llallagua, Potosi Department, Bolivia
Source: Lloyd Twaites
Description: Lead-gray metallic foliated fragment intimately associated with stibnite
Diffraction sample description: Powder, with stibnite
Measured chemistry: lighter phase: (Pb_8.84_Cu_0.16_)_Σ=9_(Sb_21.92_As_0.08_)_Σ=22_S_42.00_ ; darker phase: Sb_2.00_S_3.00_
Cell parameters: a: 22.106(2) b: 22.106(2) c: 4.3254(5) alpha: 90 beta: 90 gamma: 120 volume: 1830.5(0) crystal system: hexagonal
x	intensity
5	0
5.22	6.17547
5.44	7.7298
5.66	3.78079
5.88	9.39477
6.1	2.09634
6.32	1.46875
6.54	2.76884
6.76	0.123538
6.98	5.34271
7.2	3.62964
7.42	5.60188
7.64	1.71536
7.86	3.61236
8.08	1.68575
8.3	5.54638
8.52	3.62098
8.74	1.68684
8.96	4.75487
9.18	0.243936
9.4	6.77091
9.62	5.7819
9.84	5.81404
10.06	1.88324
10.28	4.94195
10.5	5.16242
10.72	4.21506
10.94	7.23945
11.16	7.31966
11.38	10.3255
11.6	5.35316
11.82	3.24377
12.04	5.25705
12.26	6.33652
12.48	5.25268
12.7	5.13175
12.92	1.19488
13.14	3.10362
13.36	4.95151
13.58	4.71435
13.8	5.60527
14.02	3.46026
14.24	5.43422
14.46	7.26184
14.68	6.0164
14.9	2.90318
15.12	5.68508
15.34	0.391495
15.56	1.22491
15.78	7.33825
16	12.3895
16.22	4.27126
16.44	0.157995
16.66	4.12061
16.88	0.742003
17.1	4.38389
17.32	7.44381
17.54	15.5216
17.76	6.60495
17.98	0.148328
18.2	0.850307
18.42	1.80874
18.64	3.13763
18.86	1.80724
19.08	9.12874
19.3	5.08905
19.52	3.08626
19.74	1.04069
19.96	2.99531
20.18	1.00303
20.4	7.79212
20.62	1.52695
20.84	5.31118
21.06	5.07357
21.28	7.94501
21.5	4.82196
21.72	0.728947
21.94	3.60783
22.16	0.68497
22.38	9.02366
22.6	20.7566
22.82	7.5871
23.04	1.09268
23.26	5.90083
23.48	0.379992
23.7	4.37493
23.92	9.08035
24.14	4.77823
24.36	1.47299
24.58	9.04741
24.8	19.2074
25.02	13.8142
25.24	8.74229
25.46	2.1371
25.68	5.79421
25.9	191.777
26.12	21.1065
26.34	10.5785
26.56	41.8814
26.78	6.96369
27	4.03052
27.22	1.12426
27.44	1.07468
27.66	3.79635
27.88	1.60964
28.1	3.43189
28.32	12.3155
28.54	11.7962
28.76	8.20088
28.98	26.0992
29.2	23.1364
29.42	3.26831
29.64	18.3815
29.86	12.6133
30.08	5.20567
30.3	3.50412
30.52	2.2644
30.74	12.303
30.96	9.46073
31.18	1.56123
31.4	5.33503
31.62	4.06519
31.84	33.0264
32.06	14.9646
32.28	39.7837
32.5	9.31576
32.72	4.25849
32.94	3.93766
33.16	7.05788
33.38	8.06849
33.6	6.22502
33.82	0.306096
34.04	3.5423
34.26	0.491234
34.48	8.63803
34.7	10.8873
34.92	10.0099
35.14	5.16083
35.36	5.26461
35.58	16.5581
35.8	0.676426
36.02	8.6758
36.24	3.79296
36.46	0.21017
36.68	2.78395
36.9	10.2041
37.12	11.1835
37.34	5.28061
37.56	18.8439
37.78	3.40479
38	3.46449
38.22	5.55088
38.44	2.579
38.66	0.460297
38.88	6.20494
39.1	9.74787
39.32	9.38994
39.54	8.11922
39.76	10.4823
39.98	17.5568
40.2	9.22452
40.42	13.7842
40.64	0.688297
40.86	0.860818
41.08	2.56424
41.3	4.25922
41.52	1.79825
41.74	19.1784
41.96	7.97775
42.18	3.23506
42.4	25.2961
42.62	8.79316
42.84	0.874826
43.06	9.13273
43.28	4.49905
43.5	4.13064
43.72	2.01327
43.94	17.0699
44.16	8.30875
44.38	3.60646
44.6	1.81235
44.82	3.89479
45.04	5.66866
45.26	5.10772
45.48	10.1433
45.7	40.77
45.92	7.52037
46.14	1.92995
46.36	0.94792
46.58	3.26365
46.8	10.3166
47.02	13.7887
47.24	3.83544
47.46	10.942
47.68	9.71883
47.9	2.81807
48.12	3.89753
48.34	8.91676
48.56	6.91892
48.78	6.96101
49	14.6616
49.22	7.89046
49.44	5.62451
49.66	8.98431
49.88	17.2919
50.1	13.3202
50.32	7.32074
50.54	5.47402
50.76	4.62743
50.98	6.74325
51.2	0.081799
51.42	5.23536
51.64	7.35205
51.86	11.2493
52.08	0.924971
52.3	5.50137
52.52	0.522745
52.74	0.503923
52.96	0.669452
53.18	18.1848
53.4	11.0569
53.62	5.85713
53.84	3.84246
54.06	3.72258
54.28	13.7183
54.5	7.80426
54.72	6.80548
54.94	5.19596
55.16	3.49578
55.38	7.73825
55.6	4.05617
55.82	3.52659
56.04	5.8491
56.26	0.960571
56.48	12.0066
56.7	1.17268
56.92	4.33242
57.14	4.62821
57.36	3.52292
57.58	13.3434
57.8	3.33296
58.02	1.67096
58.24	0.39405
58.46	3.44005
58.68	5.28872
58.9	4.23926
59.12	2.2458
59.34	2.82245
59.56	1.85124
59.78	1.17479
60	13.8668
60.22	4.90396
60.44	5.00277
60.66	8.13162
60.88	6.22774
61.1	1.26887
61.32	9.5317
61.54	4.57099
61.76	2.8089
61.98	1.98163
62.2	10.9772
62.42	1.16112
62.64	8.59153
62.86	3.41824
63.08	9.0868
63.3	4.07703
63.52	12.8849
63.74	4.71431
63.96	1.82665
64.18	0.740214
64.4	6.76376
64.62	10.8334
64.84	6.9314
65.06	3.95546
65.28	3.93758
65.5	5.99557
65.72	9.97111
65.94	8.97803
66.16	5.94643
66.38	2.83133
66.6	3.57763
66.82	4.76075
67.04	5.65344
67.26	9.59306
67.48	8.6278
67.7	0.253643
67.92	2.72222
68.14	5.85279
68.36	6.87103
68.58	5.97136
68.8	4.86925
69.02	4.86875
69.24	0.394417
69.46	5.64228
69.68	3.81239
69.9	8.918
70.12	12.0286
70.34	7.92616
70.56	6.81961
70.78	1.80582
71	1.73738
71.22	2.13474
71.44	6.05422
71.66	2.04003
71.88	3.08711
72.1	0.991657
72.32	6.90048
72.54	2.71026
72.76	11.8926
72.98	7.01774
73.2	2.33164
73.42	1.45219
73.64	6.6628
73.86	9.59956
74.08	6.66389
74.3	3.79047
74.52	0.858891
74.74	1.12224
74.96	15.1711
75.18	7.09714
75.4	5.1116
75.62	0.918242
75.84	0.970162
76.06	4.89618
76.28	6.05353
76.5	2.10749
76.72	7.08396
76.94	7.04509
77.16	1.12843
77.38	3.73076
77.6	4.76398
77.82	10.6716
78.04	0.557511
78.26	3.32067
78.48	8.2182
78.7	2.20655
78.92	4.12271
79.14	2.90252
79.36	0.148736
79.58	0.754798
79.8	1.30947
80.02	0.760935
80.24	2.86378
80.46	0.947806
80.68	10.2286
80.9	3.21992
81.12	3.46947
81.34	4.51682
81.56	3.77201
81.78	0.95254
82	3.20206
82.22	6.18828
82.44	4.19137
82.66	6.15476
82.88	10.0714
83.1	6.93807
83.32	0.823884
83.54	3.4551
83.76	6.32404
83.98	5.1837
84.2	3.98327
84.42	3.85337
84.64	6.72098
84.86	4.62631
85.08	3.56365
85.3	1.53237
85.52	0.36592
85.74	8.41688
85.96	0.472884
86.18	4.54921
86.4	2.47005
86.62	1.30783
86.84	13.513
87.06	1.80255
87.28	3.03579
87.5	4.31795
87.72	18.4323
87.94	5.63501
88.16	7.7912
88.38	8.94058
88.6	0.808766
88.82	5.53203
89.04	2.80755
89.26	0.878913
89.48	0.967157
89.7	9.24404
89.92	2.24024
