Measurement: Powder, Xray Data XY Processed
Mineral: Zinnwaldite
Rruff sample: R040138
Ideal chemistry: K(Al,Fe,Li)_3_(Si,Al)_4_O_10_(OH)F
Locality: TÃ¸rdal, Telemark, Norway
Source: University of Arizona Mineral Museum
Description: Dark green mica book, polytype 1M
Diffraction sample description: Powder, cell parameters are from single crystal
Measured chemistry: (K_0.96_Na_0.04_)(Al_0.35_Fe^2+^_0.29_Li_0.27_Mg_0.04_Mn_0.03_Ti_0.02_)_3_(Si_0.66_Al_0.34_)_4_O_10_((OH)_0.64_F_0.36_)_2_
Cell parameters: a: 5.31(1) b: 9.23(3) c: 10.14(3) alpha: 90. beta: 100.27(7) gamma: 90. volume: 488(1) crystal system: monoclinic
x	intensity
5	0
5.22	8.38258
5.44	12.4424
5.66	8.15118
5.88	15.6131
6.1	8.01476
6.32	19.162
6.54	16.4839
6.76	20.2811
6.98	14.6823
7.2	8.83548
7.42	16.2828
7.64	3.2505
7.86	13.0631
8.08	24.8119
8.3	3.874
8.52	22.7295
8.74	173.139
8.96	407.952
9.18	35.4956
9.4	6.59037
9.62	16.3464
9.84	8.45249
10.06	6.84988
10.28	4.98372
10.5	1.47316
10.72	15.5393
10.94	16.5082
11.16	17.9893
11.38	13.391
11.6	14.2586
11.82	23.6623
12.04	20.4105
12.26	11.1856
12.48	3.78718
12.7	1.93299
12.92	14.5907
13.14	14.1445
13.36	20.9821
13.58	10.0752
13.8	18.2231
14.02	7.02437
14.24	4.24647
14.46	10.2467
14.68	12.215
14.9	11.1686
15.12	6.83434
15.34	12.6321
15.56	16.8467
15.78	16.2374
16	16.3493
16.22	10.2926
16.44	1.63825
16.66	9.73164
16.88	8.94525
17.1	5.22055
17.32	10.4616
17.55	13.7208
17.77	21.5826
17.99	0.984325
18.21	21.8892
18.43	10.45
18.65	12.7568
18.87	9.61138
19.09	13.5902
19.31	3.7651
19.53	13.2188
19.75	0.887703
19.97	10.6142
20.19	40.6713
20.41	7.31377
20.63	13.3214
20.85	13.4805
21.07	14.217
21.29	13.267
21.51	6.54763
21.73	9.9623
21.95	5.2396
22.17	5.25545
22.39	13.5841
22.61	1.63085
22.83	14.2913
23.05	10.0376
23.27	11.3338
23.49	9.1825
23.71	0.039948
23.93	11.0558
24.15	25.259
24.37	14.2645
24.59	12.1284
24.81	4.59851
25.03	18.4088
25.25	23.3747
25.47	44.5005
25.69	79.9632
25.91	19.0311
26.13	11.5587
26.35	0.334488
26.57	35.6163
26.79	720.237
27.01	28.0374
27.23	13.0537
27.45	10.0835
27.67	9.83355
27.89	8.99594
28.11	8.60529
28.33	14.6044
28.55	9.91106
28.77	16.7121
28.99	12.932
29.21	5.59924
29.43	12.046
29.65	19.6419
29.87	5.66029
30.09	5.54266
30.31	2.54684
30.53	24.5307
30.75	19.8088
30.97	9.96596
31.19	16.7051
31.41	21.6097
31.63	5.52437
31.85	1.48341
32.07	19.1111
32.29	11.3772
32.51	13.4126
32.73	3.19985
32.95	15.4715
33.17	16.6197
33.39	1.82325
33.61	18.0381
33.83	7.27191
34.05	25.3974
34.27	21.1922
34.49	22.4525
34.71	13.6196
34.93	37.6312
35.15	125.659
35.37	61.9038
35.59	22.7965
35.81	8.50255
36.03	45.0283
36.25	9.4586
36.47	5.15424
36.69	10.1706
36.91	10.6159
37.13	24.2981
37.35	14.4811
37.57	27.8046
37.79	45.075
38.01	29.9885
38.23	11.5491
38.45	13.2199
38.67	6.11556
38.89	10.3105
39.11	7.26737
39.33	9.43467
39.55	6.83835
39.77	13.7484
39.99	2.79148
40.21	3.41465
40.43	10.2375
40.65	20.3953
40.87	17.0195
41.09	7.37247
41.31	1.90751
41.53	18.2719
41.75	29.1241
41.97	13.5357
42.19	1.34917
42.41	2.99864
42.63	12.3058
42.85	15.8139
43.07	38.5244
43.29	79.1541
43.51	129.642
43.73	35.9653
43.95	30.2118
44.17	16.391
44.39	15.6521
44.61	15.2196
44.83	3.14582
45.05	7.03013
45.27	21.9188
45.49	43.1686
45.71	10.3647
45.93	6.63282
46.15	8.53149
46.37	18.0725
46.59	2.83148
46.81	4.55881
47.03	8.70062
47.25	3.57824
47.47	6.53894
47.69	19.6388
47.91	4.66896
48.13	6.02208
48.35	11.3891
48.57	9.3856
48.79	3.4257
49.01	0.410429
49.23	1.21026
49.45	9.05283
49.67	19.94
49.89	0.034163
50.11	24.8199
50.33	9.55238
50.55	6.86917
50.77	13.3916
50.99	17.9638
51.21	8.62223
51.43	12.2893
51.65	23.6046
51.87	9.06791
52.09	2.65028
52.31	21.2196
52.53	46.664
52.75	47.0759
52.97	25.2057
53.19	10.6808
53.41	1.82121
53.63	8.03192
53.85	0.826817
54.07	17.2072
54.29	3.30757
54.51	8.97844
54.73	1.95611
54.95	17.163
55.17	16.2614
55.39	4.05907
55.61	4.68586
55.83	7.17549
56.05	14.5782
56.27	0.957403
56.49	21.5833
56.71	7.0066
56.93	22.5865
57.15	20.3585
57.37	53.3297
57.59	86.5588
57.81	42.3259
58.03	31.708
58.25	10.3419
58.48	25.571
58.7	3.95457
58.92	1.38021
59.14	2.24818
59.36	11.3644
59.58	9.28635
59.8	8.10035
60.02	9.79021
60.24	9.81241
60.46	15.2784
60.68	9.74749
60.9	19.194
61.12	14.4344
61.34	15.1
61.56	13.8738
61.78	10.8227
62	4.41071
62.22	9.41538
62.44	9.30531
62.66	2.88732
62.88	6.47136
63.1	14.6264
63.32	15.3913
63.54	6.77025
63.76	3.66221
63.98	2.24715
64.2	4.46908
64.42	19.9778
64.64	8.57475
64.86	14.5494
65.08	0.325665
65.3	25.0717
65.52	21.0197
65.74	0.656443
65.96	3.78984
66.18	32.3283
66.4	9.41952
66.62	16.3009
66.84	26.768
67.06	3.90871
67.28	14.8152
67.5	12.0352
67.72	5.54475
67.94	13.6835
68.16	46.9247
68.38	45.5927
68.6	20.075
68.82	7.11602
69.04	26.3833
69.26	24.2025
69.48	14.1129
69.7	3.38152
69.92	12.0926
70.14	5.87404
70.36	4.75208
70.58	1.66567
70.8	7.28597
71.02	9.96171
71.24	8.05243
71.46	4.5605
71.68	12.3639
71.9	9.48957
72.12	14.7501
72.34	13.9732
72.56	6.05841
72.78	5.30527
73	19.2211
73.22	5.15873
73.44	0.89036
73.66	4.21982
73.88	12.1674
74.1	1.02411
74.32	6.09748
74.54	12.8714
74.76	10.2895
74.98	24.9469
75.2	0.376257
75.42	11.4792
75.64	12.0664
75.86	10.494
76.08	2.56134
76.3	6.02604
76.52	15.3723
76.74	3.79721
76.96	14.9707
77.18	15.0823
77.4	4.5687
77.62	0.996231
77.84	11.7523
78.06	11.3746
78.28	7.94419
78.5	12.5298
78.72	0.687008
78.94	17.7029
79.16	12.3202
79.38	14.6145
79.6	4.62982
79.82	5.42957
80.04	4.18522
80.26	7.0276
80.48	1.9622
80.7	13.4198
80.92	13.4941
81.14	3.24609
81.36	8.5008
81.58	14.3908
81.8	6.41051
82.02	12.3438
82.24	13.8429
82.46	10.9277
82.68	2.06182
82.9	6.16031
83.12	6.83681
83.34	2.77277
83.56	1.73377
83.78	10.404
84	9.47491
84.22	5.83175
84.44	2.7354
84.66	10.0155
84.88	10.8762
85.1	5.85179
85.32	0.904572
85.54	19.0453
85.76	11.2443
85.98	7.48076
86.2	11.1239
86.42	5.38643
86.64	5.15503
86.86	5.065
87.08	11.3033
87.3	9.40309
87.52	6.46676
87.74	16.5698
87.96	10.4732
88.18	9.18318
88.4	8.01204
88.62	11.1533
88.84	4.38513
89.06	9.44051
89.28	2.30334
89.5	10.3251
89.72	7.23152
89.94	7.95174
