Measurement: Powder, Xray Data XY Processed
Mineral: Zircon
Rruff sample: R050488
Ideal chemistry: Zr^4+^SiO_4_
Locality: Sigulani Village, Tambani Area, Blantyre District, Nyassaland
Source: California Institute of Technology
Description: Brown fragment
Diffraction sample description: Powder
Measured chemistry: (Zr_0.99_Hf_0.01_)_Î£=1_Si_1.00_O_4_
Cell parameters: a: 6.6058(5) b: 6.6058(5) c: 5.9818(8) alpha: 90. beta: 90. gamma: 90. volume: 261.03(4) crystal system: tetragonal
x	intensity
5	0
5.22	16.2786
5.44	3.47922
5.66	2.42958
5.88	10.0779
6.1	9.69246
6.32	5.84847
6.54	5.79583
6.76	14.9146
6.98	6.25038
7.2	7.47955
7.42	5.76959
7.64	7.80884
7.86	6.67665
8.08	1.79797
8.3	4.79479
8.52	4.46413
8.74	4.50886
8.96	9.09758
9.18	7.15845
9.4	2.33806
9.62	9.47417
9.84	7.20823
10.06	5.2728
10.28	2.33055
10.5	2.39921
10.72	4.41901
10.94	4.46653
11.16	6.53298
11.38	9.25494
11.6	7.58881
11.82	4.2972
12.04	6.45776
12.26	13.6731
12.48	12.9791
12.7	14.2005
12.92	8.32945
13.14	8.5721
13.36	3.65551
13.58	6.74225
13.8	2.97282
14.02	2.90731
14.24	9.01456
14.46	0.059289
14.68	10.0246
14.9	13.0187
15.12	3.96243
15.34	0.024679
15.56	7.71718
15.78	5.66412
16	3.35181
16.22	5.17172
16.44	3.03453
16.66	3.93442
16.88	4.62592
17.1	4.55331
17.32	8.92075
17.54	5.66591
17.76	7.39257
17.98	9.20468
18.2	11.9962
18.42	19.1838
18.64	3.78391
18.86	4.31118
19.08	1.02694
19.3	8.98011
19.52	13.6604
19.74	22.7827
19.96	354.849
20.18	27.2469
20.4	12.3855
20.62	9.4615
20.84	5.48936
21.06	5.1849
21.28	7.45372
21.5	7.66948
21.72	5.66249
21.94	12.0563
22.16	9.33844
22.38	3.39455
22.6	1.13101
22.82	7.24267
23.04	4.33277
23.26	4.11548
23.48	2.1574
23.7	7.08681
23.92	3.17973
24.14	7.64491
24.36	12.4707
24.58	3.36028
24.8	7.79065
25.02	2.04703
25.24	7.26017
25.46	1.38764
25.68	5.23037
25.9	7.01001
26.12	7.1444
26.34	7.19808
26.56	11.8251
26.78	86.1657
27	964.666
27.22	47.8568
27.44	12.6288
27.66	17.0557
27.88	5.57399
28.1	12.5832
28.32	10.3545
28.54	3.19543
28.76	10.0374
28.98	5.71746
29.2	9.23367
29.42	7.90154
29.64	2.15686
29.86	1.8024
30.08	6.63384
30.3	7.88566
30.52	0.024912
30.74	2.85174
30.96	10.1059
31.18	12.0524
31.4	1.24828
31.62	1.17364
31.84	15.0166
32.06	8.69893
32.28	5.02285
32.5	1.56704
32.72	9.3316
32.94	13.0925
33.16	6.03008
33.38	0.741272
33.6	14.3413
33.82	47.9992
34.04	15.8487
34.26	10.4528
34.48	9.20948
34.7	5.45318
34.92	10.3661
35.14	17.8202
35.36	70.5596
35.58	351.832
35.8	37.0868
36.02	14.5309
36.24	0.858225
36.46	5.64249
36.68	5.13909
36.9	1.72909
37.12	2.05328
37.34	4.33359
37.56	4.1278
37.78	4.24133
38	8.16827
38.22	12.2658
38.44	71.3949
38.66	27.5409
38.88	9.68962
39.1	5.6757
39.32	8.56435
39.54	2.70643
39.76	2.84831
39.98	9.01489
40.2	0.225596
40.42	15.422
40.64	59.6381
40.86	13.8938
41.08	5.85008
41.3	4.68195
41.52	1.89084
41.74	2.10055
41.96	5.24885
42.18	5.15529
42.4	1.99792
42.62	5.66085
42.84	5.55571
43.06	8.35596
43.28	4.85755
43.5	26.6457
43.72	134.361
43.94	30.0121
44.16	3.8715
44.38	6.23871
44.6	8.65955
44.82	0.886286
45.04	1.02727
45.26	2.16374
45.48	5.3573
45.7	0.736698
45.92	3.04739
46.14	4.61318
46.36	2.98187
46.58	3.76663
46.8	6.08983
47.02	3.76272
47.24	16.6986
47.46	39.8348
47.68	39.9609
47.9	8.91995
48.12	3.3109
48.34	0.832099
48.56	5.16772
48.78	7.47542
49	2.34396
49.22	10.0484
49.44	10.2529
49.66	13.3031
49.88	3.11267
50.1	0.113075
50.32	5.96438
50.54	0.776924
50.76	1.38741
50.98	4.48167
51.2	2.44775
51.42	7.04973
51.64	4.66565
51.86	9.36888
52.08	67.3195
52.3	55.4946
52.52	13.568
52.74	12.924
52.96	13.7075
53.18	47.2845
53.4	284.409
53.62	129.471
53.84	16.1432
54.06	6.75163
54.28	8.59226
54.5	0.563324
54.72	13.1975
54.94	3.8598
55.16	3.67326
55.38	33.2645
55.6	141.708
55.82	30.7197
56.04	17.8618
56.26	1.93611
56.48	2.43251
56.7	3.75495
56.92	3.15161
57.14	7.41848
57.36	7.67308
57.58	10.8553
57.8	2.09292
58.02	2.0477
58.24	4.1568
58.46	4.1348
58.68	1.19816
58.9	4.23925
59.12	7.40568
59.34	0.685441
59.56	8.30441
59.78	9.70287
60	6.61162
60.22	2.93696
60.44	4.46332
60.66	4.14235
60.88	0.831081
61.1	7.66067
61.32	10.3978
61.54	7.01256
61.76	3.76883
61.98	13.5741
62.2	6.12841
62.42	3.07669
62.64	23.0324
62.86	82.0957
63.08	32.2376
63.3	0.504601
63.52	13.7171
63.74	3.12028
63.96	7.64448
64.18	5.05047
64.4	12.5192
64.62	1.7131
64.84	1.93829
65.06	3.90276
65.28	9.38397
65.5	0.458188
65.72	1.56148
65.94	5.43549
66.16	2.22245
66.38	10.5254
66.6	1.81424
66.82	5.07952
67.04	1.38555
67.26	4.56043
67.48	17.6671
67.7	77.7077
67.92	85.1909
68.14	18.7777
68.36	11.9066
68.58	26.7405
68.8	43.2915
69.02	15.7954
69.24	2.48012
69.46	1.90279
69.68	2.77424
69.9	2.89764
70.12	2.82694
70.34	2.45348
70.56	7.74217
70.78	3.29926
71	2.70559
71.22	2.86866
71.44	7.92199
71.66	6.92326
71.88	0.04985
72.1	11.8718
72.32	6.35495
72.54	1.9654
72.76	6.96835
72.98	10.0931
73.2	25.6475
73.42	19.5085
73.64	14.2578
73.86	1.76173
74.08	0.954
74.3	4.84324
74.52	4.68305
74.74	6.55344
74.96	7.39461
75.18	12.0761
75.4	51.9342
75.62	31.9913
75.84	10.2981
76.06	9.3437
76.28	3.38427
76.5	5.80072
76.72	8.08672
76.94	2.5384
77.16	0.016421
77.38	0.688347
77.6	5.708
77.82	0.813821
78.04	2.95703
78.26	1.02696
78.48	4.99728
78.7	0.18147
78.92	7.51948
79.14	0.680051
79.36	5.91087
79.58	4.4642
79.8	12.2239
80.02	1.81127
80.24	6.84837
80.46	4.59295
80.68	37.6823
80.9	28.0483
81.12	17.1279
81.34	0.19977
81.56	5.33772
81.78	4.53013
82	4.81324
82.22	6.12669
82.44	13.3032
82.66	3.34985
82.88	7.66233
83.1	2.57575
83.32	5.39667
83.54	5.5439
83.76	2.71118
83.98	4.12809
84.2	4.33791
84.42	2.38518
84.64	1.54361
84.86	0.855574
85.08	7.86741
85.3	5.6671
85.52	6.57424
85.74	2.96063
85.96	2.31187
86.18	7.01204
86.4	2.34944
86.62	7.79918
86.84	6.33868
87.06	6.66243
87.28	10.998
87.5	13.4765
87.72	12.0437
87.94	18.4684
88.16	11.007
88.38	5.46954
88.6	14.948
88.82	37.4198
89.04	17.6983
89.26	3.42956
89.48	3.52064
89.7	0.348302
89.92	8.41042
