Measurement: Powder, Xray Data XY Processed
Mineral: Zircon
Rruff sample: R050203
Ideal chemistry: Zr^4+^SiO_4_
Locality: Eastern Thailand
Source: Eric Van Valkenburg
Description: Dark red water-worn single crystal
Diffraction sample description: Powder
Measured chemistry: (Zr_0.99_Hf_0.01_)_Î£=1_Si_1.00_O_4_
Cell parameters: a: 6.6049(1) b: 6.6049(1) c: 5.9801(2) alpha: 90. beta: 90. gamma: 90. volume: 260.88(1) crystal system: tetragonal
x	intensity
5	0
5.22	5.6524
5.44	1.64965
5.66	11.0137
5.88	6.92437
6.1	10.4025
6.32	6.67274
6.54	2.87914
6.76	1.98822
6.98	3.21599
7.2	6.3716
7.42	7.5009
7.64	2.86057
7.86	6.75505
8.08	0.033378
8.3	3.93694
8.52	7.21179
8.74	1.57377
8.96	3.75724
9.18	5.98112
9.4	3.35176
9.62	2.80636
9.84	8.73837
10.06	4.78004
10.28	3.85557
10.5	0.498841
10.72	3.37166
10.94	8.15913
11.16	0.960628
11.38	5.86151
11.6	6.87627
11.82	3.72237
12.04	5.61016
12.26	7.7228
12.48	3.76076
12.7	3.90132
12.92	5.03002
13.14	1.24569
13.36	5.38603
13.58	9.57306
13.8	7.83976
14.02	3.90646
14.24	10.8916
14.46	5.83869
14.68	4.8741
14.9	4.95711
15.12	2.96826
15.34	2.10575
15.56	10.1242
15.78	4.13118
16	4.09761
16.22	3.00786
16.44	4.97281
16.66	5.76998
16.88	4.81382
17.1	2.76209
17.32	1.49104
17.54	2.40697
17.76	0.254989
17.98	6.94488
18.2	3.6324
18.42	3.33906
18.64	2.9365
18.86	0.541738
19.08	8.26227
19.3	3.8748
19.52	9.60058
19.74	13.5315
19.96	102.386
20.18	85.5221
20.4	1.57374
20.62	1.83712
20.84	0.046354
21.06	6.21915
21.28	6.46655
21.5	2.81551
21.72	10.372
21.94	2.67199
22.16	0.791487
22.38	5.84316
22.6	9.89543
22.82	8.02095
23.04	2.99638
23.26	4.99848
23.48	0.016145
23.7	1.90753
23.92	5.956
24.14	2.89744
24.36	41.1683
24.58	4.10417
24.8	3.70908
25.02	2.22725
25.24	1.75002
25.46	2.1714
25.68	4.53421
25.9	2.86908
26.12	10.2886
26.34	6.58312
26.56	13.8706
26.78	47.9545
27	1623.94
27.22	99.0827
27.44	13.8754
27.66	17.3597
27.88	0.250793
28.1	1.75874
28.32	1.80148
28.54	2.34828
28.76	7.80093
28.98	14.489
29.2	3.90816
29.42	11.1632
29.64	4.45382
29.86	0.151266
30.08	6.1923
30.3	1.41732
30.52	5.52018
30.74	5.56014
30.96	0.636612
31.18	0.481024
31.4	1.22987
31.62	7.91448
31.84	1.93843
32.06	10.9843
32.28	3.21599
32.5	2.46347
32.72	4.3114
32.94	3.21079
33.16	3.13561
33.38	3.08859
33.6	9.59993
33.82	61.5572
34.04	11.1614
34.26	4.71234
34.48	4.11483
34.7	4.33184
34.92	3.77733
35.14	1.54515
35.36	26.5617
35.58	162.541
35.8	207.859
36.02	31.1618
36.24	5.11007
36.46	4.66356
36.68	6.03453
36.9	0.299234
37.12	4.53047
37.34	6.74841
37.56	3.93873
37.78	2.92774
38	14.9764
38.22	10.8612
38.44	38.0473
38.66	111.883
38.88	13.1164
39.1	10.1954
39.32	4.2923
39.54	2.39546
39.76	6.46371
39.98	3.55241
40.2	6.64924
40.42	2.8218
40.64	22.9107
40.86	28.6516
41.08	15.8374
41.3	7.68507
41.52	2.27781
41.74	3.95435
41.96	3.98249
42.18	3.92687
42.4	6.84567
42.62	8.74923
42.84	3.52479
43.06	5.32072
43.28	8.31135
43.5	17.1526
43.72	66.1704
43.94	155.297
44.16	4.5872
44.38	1.94211
44.6	7.32905
44.82	5.5561
45.04	1.89651
45.26	0.122018
45.48	1.25061
45.7	2.15809
45.92	0.130632
46.14	5.36279
46.36	2.81363
46.58	2.54988
46.8	6.18024
47.02	5.89754
47.24	0.970932
47.46	20.835
47.68	108.075
47.9	25.0911
48.12	10.2741
48.34	7.50848
48.56	7.38032
48.78	6.53377
49	0.718159
49.22	1.96785
49.44	6.11935
49.66	8.10794
49.88	5.4636
50.1	3.80528
50.32	6.91629
50.54	2.37469
50.76	0.133736
50.98	0.096231
51.2	2.672
51.42	0.35732
51.64	3.27751
51.86	1.39772
52.08	33.1913
52.3	84.856
52.52	12.4924
52.74	0.347309
52.96	4.6768
53.18	10.3704
53.4	144.83
53.62	326.748
53.84	31.7942
54.06	8.49712
54.28	0.951894
54.5	0.827521
54.72	3.58577
54.94	1.28215
55.16	4.8979
55.38	7.76734
55.6	133.243
55.82	137.595
56.04	18.5576
56.26	3.64215
56.48	5.94571
56.7	7.30879
56.92	7.58697
57.14	3.93855
57.36	3.45902
57.58	9.81254
57.8	0.656422
58.02	6.75377
58.24	3.67581
58.46	3.47189
58.68	0.315897
58.9	0.268189
59.12	3.18778
59.34	6.20092
59.56	5.0876
59.78	18.1325
60	10.1177
60.22	7.28354
60.44	2.10807
60.66	3.94572
60.88	1.75422
61.1	1.52216
61.32	4.27724
61.54	1.01627
61.76	1.41493
61.98	5.30403
62.2	7.92592
62.42	4.7863
62.64	17.7901
62.86	84.0302
63.08	90.2707
63.3	7.48635
63.52	7.77192
63.74	0.915956
63.96	0.576585
64.18	3.04149
64.4	6.50843
64.62	0.773493
64.84	3.89861
65.06	1.01605
65.28	1.20357
65.5	12.0359
65.72	3.33196
65.94	3.10236
66.16	0.887862
66.38	0.296155
66.6	1.62197
66.82	2.91085
67.04	4.30774
67.26	5.61993
67.48	10.9179
67.7	29.1681
67.92	82.7861
68.14	33.1467
68.36	6.09917
68.58	5.25153
68.8	21.7154
69.02	46.6064
69.24	10.251
69.46	5.04611
69.68	3.87631
69.9	7.34722
70.12	2.07625
70.34	2.39573
70.56	2.77036
70.78	0.615517
71	4.52247
71.22	2.51743
71.44	4.18724
71.66	7.98
71.88	9.58661
72.1	3.34712
72.32	2.18471
72.54	1.0372
72.76	3.91932
72.98	0.943847
73.2	10.7472
73.42	52.8422
73.64	30.7608
73.86	6.85372
74.08	4.89831
74.3	3.76796
74.52	0.288756
74.74	0.642735
74.96	3.57515
75.18	9.50757
75.4	41.2522
75.62	29.1746
75.84	12.2475
76.06	12.1181
76.28	12.2619
76.5	4.65083
76.72	1.83874
76.94	2.19009
77.16	3.44222
77.38	5.80268
77.6	0.033026
77.82	7.1372
78.04	2.55099
78.26	0.626271
78.48	4.65389
78.7	6.56539
78.92	5.16917
79.14	3.98945
79.36	2.65363
79.58	3.3599
79.8	4.93552
80.02	4.62571
80.24	0.32862
80.46	2.69739
80.68	25.4957
80.9	45.4038
81.12	36.1826
81.34	4.14896
81.56	3.16257
81.78	2.19617
82	2.34388
82.22	5.52909
82.44	3.77683
82.66	12.3733
82.88	12.5613
83.1	5.96689
83.32	1.23766
83.54	8.73863
83.76	0.179876
83.98	1.70393
84.2	5.09425
84.42	1.32296
84.64	6.5065
84.86	5.67258
85.08	7.34457
85.3	4.30314
85.52	2.3232
85.74	3.26199
85.96	6.09026
86.18	3.90745
86.4	1.40089
86.62	2.03832
86.84	1.62021
87.06	3.24108
87.28	4.89055
87.5	9.58275
87.72	8.36816
87.94	18.0215
88.16	29.7615
88.38	20.6299
88.6	15.9741
88.82	53.1474
89.04	13.3983
89.26	13.91
89.48	3.66902
89.7	4.94878
89.92	1.32075
