Measurement: Powder, Xray Data XY Processed
Mineral: Zircon
Rruff sample: R050286
Ideal chemistry: Zr^4+^SiO_4_
Locality: Renfrew County, Ontario, Canada
Source: Marcus Origlieri
Description: Brownish red prismatic crystal frozen in matrix, associated with apatite
Diffraction sample description: Powder
Measured chemistry: Zr_1.00_Si_1.00_O_4_; trace amounts of Hf
Cell parameters: a: 6.6132(3) b: 6.6132(3) c: 6.0038(3) alpha: 90 beta: 90 gamma: 90 volume: 262.57(2) crystal system: tetragonal
x	intensity
5	0
5.22	10.3798
5.44	7.47917
5.66	15.2432
5.88	8.28578
6.1	12.6254
6.32	5.54021
6.54	6.45424
6.76	1.5268
6.98	3.28613
7.2	0.020664
7.42	3.16657
7.64	1.30804
7.86	3.35408
8.08	6.66733
8.3	2.58125
8.52	5.80976
8.74	7.03244
8.96	6.18183
9.18	10.3423
9.4	6.42469
9.62	1.44778
9.84	1.39886
10.06	7.39103
10.28	8.55466
10.5	9.35374
10.72	9.26595
10.94	3.12864
11.16	6.01396
11.38	3.10787
11.6	9.10292
11.82	5.08976
12.04	7.13009
12.26	11.1849
12.48	5.22269
12.7	5.20744
12.92	1.24082
13.14	4.31813
13.36	9.28556
13.58	3.46455
13.8	1.4246
14.02	0.555243
14.24	9.62318
14.46	3.61502
14.68	2.71699
14.9	6.82001
15.12	0.140709
15.34	1.90683
15.56	7.99382
15.78	4.08507
16	0.06156
16.22	8.05586
16.44	1.93086
16.66	6.91771
16.88	4.82945
17.1	5.69147
17.32	3.80854
17.54	1.82742
17.76	6.86886
17.98	5.60511
18.2	9.3905
18.42	4.23499
18.64	4.14425
18.86	0.061123
19.08	0.715514
19.3	3.54352
19.52	11.4014
19.74	8.27459
19.96	40.0298
20.18	28.8791
20.4	11.903
20.62	5.97457
20.84	0.002584
21.06	7.05969
21.28	6.17047
21.5	6.31477
21.72	4.57734
21.94	7.6589
22.16	0.584615
22.38	2.87495
22.6	6.21511
22.82	9.33244
23.04	1.33298
23.26	1.35338
23.48	3.3111
23.7	11.4101
23.92	1.36836
24.14	1.56232
24.36	22.5144
24.58	4.71167
24.8	3.48761
25.02	3.96659
25.24	4.34952
25.46	1.72677
25.68	2.03789
25.9	11.1592
26.12	4.34702
26.34	6.57339
26.56	6.43599
26.78	10.7884
27	1094.11
27.22	46.4254
27.44	13.2459
27.66	9.38148
27.88	8.76354
28.1	1.2581
28.32	5.7701
28.54	5.40344
28.76	6.18468
28.98	1.79542
29.2	4.80104
29.42	3.16069
29.64	2.69973
29.86	0.899525
30.08	9.332
30.3	8.51197
30.52	9.84209
30.74	6.95758
30.96	7.9862
31.18	3.01438
31.4	0.1072
31.62	4.73967
31.84	5.90586
32.06	10.8703
32.28	1.96854
32.5	3.12098
32.72	0.01402
32.94	1.22239
33.16	3.85842
33.38	7.76239
33.6	4.76232
33.82	66.7552
34.04	14.7381
34.26	4.33007
34.48	0.173719
34.7	6.91902
34.92	4.65055
35.14	9.70245
35.36	31.7661
35.58	599.716
35.8	20.0669
36.02	11.1823
36.24	2.15187
36.46	6.1448
36.68	4.45972
36.9	3.55446
37.12	0.717594
37.34	6.74196
37.56	4.6597
37.78	2.60475
38	7.53177
38.22	1.27666
38.44	10.1029
38.66	70.1866
38.88	4.56654
39.1	5.59023
39.32	1.72683
39.54	6.79021
39.76	2.98973
39.98	5.21003
40.2	1.50379
40.42	3.85598
40.64	130.067
40.86	14.1152
41.08	0.529428
41.3	1.3076
41.52	6.32371
41.74	2.41386
41.96	4.44061
42.18	3.37706
42.4	3.21098
42.62	5.86153
42.84	0.57129
43.06	1.66085
43.28	5.97912
43.5	9.6797
43.72	26.5477
43.94	54.6487
44.16	7.51565
44.38	6.77072
44.6	0.154831
44.82	4.95895
45.04	10.1289
45.26	2.39921
45.48	3.65232
45.7	5.7904
45.92	1.97903
46.14	2.06426
46.36	6.9315
46.58	5.78353
46.8	5.60274
47.02	0.618325
47.24	3.72514
47.46	26.6711
47.68	24.6138
47.9	12.4046
48.12	5.58157
48.34	4.5116
48.56	8.47349
48.78	4.51276
49	7.68228
49.22	13.7957
49.44	0.651132
49.66	3.6551
49.88	4.65438
50.1	2.43334
50.32	0.38013
50.54	6.36389
50.76	3.1993
50.98	2.72552
51.2	5.34566
51.42	2.97459
51.64	3.58506
51.86	4.14589
52.08	21.4843
52.3	55.9483
52.52	12.5561
52.74	0.185709
52.96	9.45749
53.18	18.3411
53.4	175.571
53.62	112.078
53.84	18.6217
54.06	17.7828
54.28	7.05584
54.5	1.4366
54.72	2.19668
54.94	3.09971
55.16	4.47235
55.38	7.74544
55.6	70.2184
55.82	29.2917
56.04	13.1657
56.26	7.21381
56.48	6.40432
56.7	1.31013
56.92	4.9789
57.14	2.29309
57.36	5.97408
57.58	8.26019
57.8	5.41061
58.02	1.9017
58.24	3.08097
58.46	2.92996
58.68	2.87902
58.9	3.86032
59.12	7.82118
59.34	3.68653
59.56	0.582543
59.78	10.1477
60	4.93156
60.22	6.6316
60.44	3.41717
60.66	2.18107
60.88	4.00725
61.1	3.94976
61.32	4.11219
61.54	0.988935
61.76	1.9192
61.98	17.7322
62.2	5.68166
62.42	0.265546
62.64	11.7709
62.86	112.781
63.08	43.1052
63.3	9.22924
63.52	2.29573
63.74	3.18262
63.96	5.42324
64.18	4.64007
64.4	7.13113
64.62	3.30212
64.84	1.72642
65.06	2.9917
65.28	6.0141
65.5	2.84879
65.72	0.910834
65.94	2.90585
66.16	1.82074
66.38	0.690753
66.6	4.34171
66.82	2.66184
67.04	0.146865
67.26	0.473742
67.48	7.87371
67.7	31.4445
67.92	35.0725
68.14	8.92207
68.36	3.7719
68.58	9.72607
68.8	17.9097
69.02	8.38353
69.24	7.71527
69.46	2.20601
69.68	5.90286
69.9	4.5753
70.12	3.01945
70.34	3.50898
70.56	3.80544
70.78	6.09529
71	1.26166
71.22	2.40145
71.44	0.477558
71.66	6.47385
71.88	2.31562
72.1	4.94952
72.32	1.39163
72.54	10.451
72.76	3.27177
72.98	3.09609
73.2	9.99727
73.42	5.93223
73.64	5.83698
73.86	1.50802
74.08	2.3369
74.3	1.2517
74.52	11.3044
74.74	3.22776
74.96	0.832772
75.18	7.05964
75.4	10.2957
75.62	12.1675
75.84	5.27059
76.06	11.2246
76.28	6.74899
76.5	3.93187
76.72	2.19332
76.94	5.37502
77.16	7.59052
77.38	1.79639
77.6	3.94853
77.82	0.182267
78.04	5.11614
78.26	3.5325
78.48	14.5641
78.7	6.26866
78.92	5.34796
79.14	2.13056
79.36	1.86824
79.58	2.65958
79.8	4.45194
80.02	0.743392
80.24	7.05152
80.46	7.8033
80.68	39.3437
80.9	27.378
81.12	11.3049
81.34	10.196
81.56	5.22233
81.78	2.28465
82	1.62189
82.22	8.83536
82.44	7.00145
82.66	5.23668
82.88	7.31485
83.1	3.42822
83.32	2.44033
83.54	3.72863
83.76	3.9849
83.98	2.17069
84.2	6.31918
84.42	0.280874
84.64	4.41721
84.86	1.54096
85.08	9.72385
85.3	4.79458
85.52	0.983056
85.74	1.91716
85.96	2.86036
86.18	3.5361
86.4	2.26425
86.62	4.94391
86.84	4.54134
87.06	0.059211
87.28	0.390407
87.5	4.07023
87.72	16.6815
87.94	21.1831
88.16	13.8468
88.38	4.64863
88.6	18.7378
88.82	14.9873
89.04	8.13036
89.26	7.4751
89.48	6.1035
89.7	1.17155
89.92	9.43837
