Measurement: Powder, Xray Data XY Processed
Mineral: Zoisite
Rruff sample: R050038
Ideal chemistry: Ca_2_Al_3_(Si_2_O_7_)(SiO_4_)O(OH)
Locality: Elf Shooting Creek, Clay County, North Carolina, USA
Source: University of Arizona Mineral Museum
Description: Tan colored fragments of single crystals
Diffraction sample description: Powder
Measured chemistry: (Ca_.998_Na_.002_)_2_(Al_.982_Fe^3+^_.018_)_3_(Si_.982_Fe^3+^_.018_)_3_O_12_(OH)
Cell parameters: a: 16.2133(5) b: 5.5576(2) c: 10.0414(3) alpha: 90. beta: 90. gamma: 90. volume: 904.82(4) crystal system: orthorhombic
x	intensity
5	0
5.22	5.894
5.44	11.686
5.66	8.575
5.88	7.831
6.1	11.307
6.32	21.041
6.54	9.945
6.76	7.744
6.98	15.92
7.2	11.95
7.42	22.272
7.64	17.467
7.86	4.942
8.08	1.514
8.3	7.047
8.52	9.618
8.74	6.215
8.96	0.718
9.18	5.208
9.4	5.244
9.62	6.341
9.84	1.23
10.06	9.13
10.28	0.112
10.5	8.996
10.72	6.937
10.94	46.967
11.16	0.998
11.38	4.875
11.6	7.881
11.82	8.769
12.04	3.793
12.26	1.175
12.48	5.267
12.7	2.461
12.92	9.584
13.14	0.352
13.36	4.828
13.58	3.7
13.8	4.842
14.02	9.945
14.24	7.096
14.46	10.066
14.68	7.08
14.9	3.209
15.12	3.379
15.34	5.512
15.56	3.713
15.78	0.315
16	2.547
16.22	11.887
16.44	2.818
16.66	0.258
16.88	0.221
17.1	2.9
17.32	7.689
17.54	1.722
17.76	97.793
17.98	7.622
18.2	1.178
18.42	8.149
18.64	4.159
18.86	7.739
19.08	11.796
19.3	6.257
19.52	3.274
19.74	7.513
19.96	1.467
20.18	13.419
20.4	6.433
20.62	3.609
20.84	6.466
21.06	4.329
21.28	0.865
21.5	4.081
21.72	3.856
21.94	26.896
22.16	10.997
22.38	1.998
22.6	9.915
22.82	2.846
23.04	6.679
23.26	0.435
23.48	1.429
23.7	15.203
23.92	8.871
24.14	15.154
24.36	25.873
24.58	24.691
24.8	15.726
25.02	7.789
25.24	1.895
25.46	8.071
25.68	14.328
25.9	2.417
26.12	3.944
26.34	12.213
26.56	1.1
26.78	7.975
27	4.758
27.22	1.587
27.44	4.417
27.66	3.167
27.88	6.935
28.1	9.743
28.32	23.941
28.54	7.541
28.76	18.579
28.98	64.907
29.2	12.051
29.42	2.078
29.64	6.981
29.86	2.739
30.08	9.378
30.3	0.951
30.52	8.387
30.74	0.328
30.96	11.807
31.18	45.885
31.4	30.499
31.62	20.04
31.84	38.525
32.06	11.105
32.28	76.773
32.5	5.052
32.72	9.251
32.94	165.42
33.16	51.747
33.38	89.955
33.6	7.244
33.82	2.184
34.04	17.557
34.26	33.142
34.48	8.629
34.7	5.102
34.92	0.575
35.14	7.746
35.36	19.541
35.58	40.649
35.8	5.987
36.02	0.245
36.24	15.085
36.46	6.81
36.68	0.307
36.9	6.138
37.12	13.052
37.34	12.634
37.56	63.66
37.78	0.127
38	3.62
38.22	5.935
38.44	10.173
38.66	47.275
38.88	31.45
39.1	1.617
39.32	5.35
39.54	6.507
39.76	14.805
39.98	23.286
40.2	12.737
40.42	49.405
40.64	7.435
40.86	11.61
41.08	4.07
41.3	10.603
41.52	7.599
41.74	2.411
41.96	2.524
42.18	1.284
42.4	1.339
42.62	4.794
42.84	21.389
43.06	44.895
43.28	9.702
43.5	16.027
43.72	9.456
43.94	64.552
44.16	12.885
44.38	1.128
44.6	10.646
44.82	29.594
45.04	3.742
45.26	7.915
45.48	3.311
45.7	39.178
45.92	21.469
46.14	16.907
46.36	4.736
46.58	13.417
46.8	21.18
47.02	4.529
47.24	0.539
47.46	1.422
47.68	6.055
47.9	10.198
48.12	6.17
48.34	0.864
48.56	12.55
48.78	17.639
49	5.803
49.22	27.168
49.44	16.985
49.66	9.424
49.88	4.746
50.1	2.074
50.32	13.091
50.54	3.598
50.76	2.866
50.98	6.117
51.2	5.504
51.42	6.536
51.64	6.566
51.86	6.739
52.08	7.521
52.3	4.616
52.52	10.682
52.74	0.311
52.96	3.623
53.18	10.48
53.4	6.365
53.62	10.974
53.84	3.866
54.06	1.727
54.28	17.46
54.5	11.067
54.72	4.935
54.94	21.202
55.16	1.711
55.38	23.205
55.6	0.889
55.82	3.415
56.04	5.81
56.26	11.282
56.48	13.925
56.7	7.484
56.92	43.458
57.14	38.731
57.36	1.866
57.58	3.665
57.8	14.095
58.02	8.044
58.24	13.421
58.46	3.885
58.68	2.352
58.9	2.408
59.12	2.942
59.34	8.217
59.56	20.536
59.78	20.525
60	23.25
60.22	24.664
60.44	5.356
60.66	5.883
60.88	1.206
61.1	4.499
61.32	5.829
61.54	2.983
61.76	9.398
61.98	0.185
62.2	6.89
62.42	9.627
62.64	10.155
62.86	4.972
63.08	6.46
63.3	4.036
63.52	10.611
63.74	13.71
63.96	6.68
64.18	27.218
64.4	50.709
64.62	7.809
64.84	3.911
65.06	12.939
65.28	2.103
65.5	6.572
65.72	2.816
65.94	3.889
66.16	6.812
66.38	2.718
66.6	1.723
66.82	2.722
67.04	5.564
67.26	5.453
67.48	38.398
67.7	18.38
67.92	2.266
68.14	2.468
68.36	3.36
68.58	5.458
68.8	2.597
69.02	5.911
69.24	5.125
69.46	1.938
69.68	33.399
69.9	21.661
70.12	2.182
70.34	8.006
70.56	0.878
70.78	8.938
71	2.076
71.22	6.292
71.44	13.198
71.66	7.271
71.88	6.961
72.1	13.651
72.32	9.574
72.54	5.328
72.76	5.067
72.98	0.088
73.2	15.636
73.42	12.41
73.64	3.05
73.86	3.829
74.08	6.487
74.3	5.922
74.52	1.128
74.74	18.113
74.96	12.135
75.18	0.164
75.4	1.678
75.62	13.198
75.84	13.293
76.06	3.428
76.28	6.546
76.5	2.669
76.72	5.333
76.94	6.598
77.16	3.514
77.38	3.395
77.6	7.283
77.82	9.731
78.04	1.33
78.26	4.546
78.48	10.591
78.7	12.912
78.92	3.838
79.14	7.333
79.36	12.579
79.58	8.837
79.8	3.149
80.02	10.262
80.24	0.483
80.46	4.831
80.68	8.977
80.9	5.113
81.12	11.109
81.34	5.337
81.56	8.178
81.78	1.847
82	8.253
82.22	7.207
82.44	8.22
82.66	4.362
82.88	1.535
83.1	2.356
83.32	7.358
83.54	0.12
83.76	7.766
83.98	5.667
84.2	2.241
84.42	2.977
84.64	7.872
84.86	6.929
85.08	8.631
85.3	3.386
85.52	2.28
85.74	8.467
85.96	0.558
86.18	6.874
86.4	6.953
86.62	1.219
86.84	2.373
87.06	7.926
87.28	5.042
87.5	12.189
87.72	7.32
87.94	3.4
88.16	2.134
88.38	4.077
88.6	0.119
88.82	5.903
89.04	15.698
89.26	7.997
89.48	9.862
89.7	6.013
89.92	9.94
