Measurement: Powder, Xray Data XY Processed
Mineral: Zoisite
Rruff sample: R050041
Ideal chemistry: Ca_2_Al_3_(Si_2_O_7_)(SiO_4_)O(OH)
Locality: Franklin County, Conway, Massachussetts, USA
Source: University of Arizona Mineral Museum
Description: Tan colored fragment
Diffraction sample description: Powder
Measured chemistry: (Ca_.993_Mg_.004_Na_.002_Mn_.001_)_2_(Al_.980_Fe^3+^_.020_)_3_(Si_.986_Fe^3+^_.014_)_3_O_12_(OH)
Cell parameters: a: 16.2084(5) b: 5.5561(2) c: 10.0373(4) alpha: 90. beta: 90. gamma: 90. volume: 903.93(4) crystal system: orthorhombic
x	intensity
5	0
5.22	11.461
5.44	10.92
5.66	8.903
5.88	8.564
6.1	8.921
6.32	10.45
6.54	8.621
6.76	2.916
6.98	9.391
7.2	5.48
7.42	12.104
7.64	8.728
7.86	4.209
8.08	2.757
8.3	10.642
8.52	14.097
8.74	12.475
8.96	16.805
9.18	8.127
9.4	12.133
9.62	11.007
9.84	10.167
10.06	5.341
10.28	0.463
10.5	2.526
10.72	7.48
10.94	40.81
11.16	7.247
11.38	1.388
11.6	12.125
11.82	1.234
12.04	4.182
12.26	9.415
12.48	6.399
12.7	10.437
12.92	11.581
13.14	7.553
13.36	0.641
13.58	25.713
13.8	5.851
14.02	12.852
14.24	6.999
14.46	14.161
14.68	8.342
14.9	11.461
15.12	8.508
15.34	7.685
15.56	1.775
15.78	5.992
16	6.967
16.22	4.114
16.44	7.23
16.66	0.121
16.88	2.34
17.1	4.745
17.32	4.928
17.54	9.9
17.76	71.551
17.98	0.45
18.2	8.286
18.42	8.149
18.64	1.024
18.86	7.905
19.08	19.882
19.3	9.64
19.52	3.392
19.74	6.087
19.96	3.048
20.18	4.028
20.4	10.037
20.62	1.076
20.84	4.68
21.06	6.582
21.28	2.887
21.5	10.08
21.72	3.068
21.94	34.65
22.16	4.009
22.38	2.853
22.6	2.369
22.82	19.334
23.04	0.302
23.26	8.104
23.48	5.878
23.7	40.301
23.92	10.397
24.14	4.204
24.36	3.957
24.58	10.027
24.8	20.023
25.02	5.526
25.24	1.656
25.46	17.286
25.68	12.208
25.9	1.962
26.12	5.355
26.34	2.446
26.56	45.973
26.78	7.609
27	5.754
27.22	6.244
27.44	59.351
27.66	2.979
27.88	64.757
28.1	420.68
28.32	8.99
28.54	5.972
28.76	12.001
28.98	81.661
29.2	5.287
29.42	48.62
29.64	0.387
29.86	2.88
30.08	6.054
30.3	32.109
30.52	48.779
30.74	3.741
30.96	13.249
31.18	35.353
31.4	32.339
31.62	19.256
31.84	14.106
32.06	5.387
32.28	51.39
32.5	0.573
32.72	5.979
32.94	113.239
33.16	43.893
33.38	56.225
33.6	6.204
33.82	18.286
34.04	11.205
34.26	19.565
34.48	3.882
34.7	3.149
34.92	6.093
35.14	6.163
35.36	12.151
35.58	62.092
35.8	4.117
36.02	21.67
36.24	15.624
36.46	2.68
36.68	1.592
36.9	6.782
37.12	12.737
37.34	2.833
37.56	36.833
37.78	10.988
38	6.189
38.22	17.482
38.44	10.69
38.66	23.522
38.88	10.543
39.1	1.649
39.32	3.448
39.54	0.493
39.76	27.505
39.98	21.743
40.2	2.002
40.42	33.817
40.64	4.59
40.86	1.726
41.08	9.758
41.3	8.722
41.52	15.638
41.74	0.136
41.96	5.732
42.18	14.447
42.4	6.502
42.62	5.224
42.84	5.905
43.06	10.688
43.28	15.226
43.5	7.463
43.72	12.416
43.94	39.381
44.16	3.072
44.38	1.457
44.6	1.35
44.82	14.041
45.04	6.916
45.26	0.028
45.48	5.282
45.7	50.144
45.92	3.988
46.14	1.29
46.36	7.71
46.58	7.593
46.8	18.396
47.02	17.195
47.24	5.411
47.46	4.574
47.68	7.228
47.9	6.236
48.12	7.324
48.34	4.274
48.56	7.02
48.78	12.679
49	2.699
49.22	4.009
49.44	21.625
49.66	25.712
49.88	10.851
50.1	1.435
50.32	3.857
50.54	6.966
50.76	4.082
50.98	16.356
51.2	1.665
51.42	9.668
51.64	11.812
51.86	5.616
52.08	12.843
52.3	4.742
52.52	7.25
52.74	6.147
52.96	11.146
53.18	0.829
53.4	9.923
53.62	4.071
53.84	13.089
54.06	12.07
54.28	13.143
54.5	12.579
54.72	11.794
54.94	10.89
55.16	1.04
55.38	2.984
55.6	0.173
55.82	6.632
56.04	3.145
56.26	5.862
56.48	11.679
56.7	3.38
56.92	26.779
57.14	23.591
57.36	6.163
57.58	6.676
57.8	10.616
58.02	13.131
58.24	7.554
58.46	0.034
58.68	6.435
58.9	3.652
59.12	1.911
59.34	8.315
59.56	30.738
59.78	18.194
60	11.762
60.22	25.225
60.44	10.242
60.66	2.42
60.88	4.389
61.1	4.228
61.32	13.101
61.54	14.103
61.76	1.973
61.98	2.612
62.2	4.275
62.42	10.111
62.64	3.851
62.86	2.64
63.08	6.277
63.3	3.164
63.52	1.274
63.74	6.938
63.96	13.015
64.18	24.09
64.4	15.15
64.62	5.371
64.84	0.968
65.06	9.173
65.28	7.311
65.5	12.412
65.72	3.886
65.94	2.098
66.16	10.553
66.38	4.38
66.6	2.132
66.82	11.835
67.04	1.75
67.26	2.297
67.48	35.066
67.7	9.953
67.92	3.915
68.14	4.806
68.36	4.616
68.58	6.536
68.8	2.643
69.02	7.81
69.24	4.011
69.46	11.02
69.68	22.376
69.9	15.092
70.12	9.727
70.34	8.877
70.56	5.605
70.78	4.873
71	4.038
71.22	1.923
71.44	13.14
71.66	4.075
71.88	3.145
72.1	9.937
72.32	3.363
72.54	3.89
72.76	7.104
72.98	10.948
73.2	0.206
73.42	8.812
73.64	10.743
73.86	4.579
74.08	6.451
74.3	8.369
74.52	3.408
74.74	4.505
74.96	1.436
75.18	3.202
75.4	3.331
75.62	0.857
75.84	11.772
76.06	8.836
76.28	4.917
76.5	4.122
76.72	7.417
76.94	6.309
77.16	13.269
77.38	4.296
77.6	11.411
77.82	4.293
78.04	5.816
78.26	5.007
78.48	5.386
78.7	14.453
78.92	16.484
79.14	10.401
79.36	7.645
79.58	4.949
79.8	0.986
80.02	0.634
80.24	3.57
80.46	8.797
80.68	9.239
80.9	3.241
81.12	11.418
81.34	10.433
81.56	3.345
81.78	2.356
82	1.266
82.22	3.17
82.44	6.915
82.66	3.803
82.88	9.515
83.1	7.231
83.32	1.311
83.54	8.242
83.76	1.22
83.98	4.508
84.2	5.362
84.42	5.574
84.64	9.587
84.86	1.726
85.08	2.862
85.3	5.942
85.52	10.002
85.74	13.81
85.96	11.931
86.18	2.01
86.4	3.74
86.62	3.842
86.84	7.989
87.06	10.516
87.28	16.563
87.5	8.52
87.72	6.635
87.94	2.585
88.16	1.775
88.38	6.946
88.6	5.96
88.82	2.963
89.04	10.768
89.26	4.465
89.48	5.601
89.7	4.616
89.92	12.627
