Measurement: Powder, Xray Data XY Processed
Mineral: Zoisite
Rruff sample: R060567
Ideal chemistry: Ca_2_Al_3_(Si_2_O_7_)(SiO_4_)O(OH)
Locality: Umba Valley, Tanzania
Source: Michael Scott
Description: Purple prismatic crystals
Diffraction sample description: Powder
Measured chemistry: Ca_2.00_Al_3.00_(Si_1.00_O_4_)(Si_2.00_O_7_)O(OH)
Cell parameters: a: 16.2035(4) b: 5.5508(1) c: 10.0378(2) alpha: 90. beta: 90. gamma: 90. volume: 902.82(3) crystal system: orthorhombic
x	intensity
5	0
5.22	2.92966
5.44	27.6401
5.66	10.5444
5.88	14.9797
6.1	9.69559
6.32	13.8375
6.54	13.7413
6.76	9.20766
6.98	19.3032
7.2	11.4844
7.42	8.06681
7.64	13.4307
7.86	3.8858
8.08	11.4174
8.3	16.0045
8.52	8.37938
8.74	3.05717
8.96	21.6321
9.18	10.8565
9.4	12.6563
9.62	15.2147
9.84	5.39182
10.06	17.4635
10.28	5.43154
10.5	15.2134
10.72	8.64063
10.94	36.2828
11.16	0.703578
11.38	9.29419
11.6	6.47648
11.82	0.232275
12.04	8.09499
12.26	11.6017
12.48	3.84959
12.7	1.2467
12.92	12.1896
13.14	4.83838
13.36	0.299557
13.58	6.69905
13.8	3.88425
14.02	11.6729
14.24	6.08229
14.46	6.46134
14.68	1.8204
14.9	8.02832
15.12	7.42989
15.34	1.50088
15.56	9.71695
15.78	1.93114
16	3.3492
16.22	9.47935
16.44	6.48284
16.66	6.68763
16.88	2.98594
17.1	8.04607
17.32	3.12978
17.54	5.19888
17.76	50.6706
17.98	4.64328
18.2	1.74618
18.42	7.71656
18.64	8.73489
18.86	4.92165
19.08	3.04535
19.3	5.25796
19.52	6.48769
19.74	5.70045
19.96	1.05406
20.18	6.86158
20.4	10.0306
20.62	6.52959
20.84	8.64874
21.06	2.66421
21.28	2.81569
21.5	6.9512
21.72	3.88334
21.94	19.1835
22.16	4.161
22.38	1.0677
22.6	2.96322
22.82	4.71455
23.04	1.52767
23.26	5.33347
23.48	0.790755
23.7	10.9975
23.92	1.86106
24.14	3.96702
24.36	3.7721
24.58	1.75001
24.8	10.8096
25.02	2.12543
25.24	6.15977
25.46	3.28158
25.68	2.56123
25.9	7.66395
26.12	4.74549
26.34	3.92331
26.56	3.04519
26.78	3.93971
27	1.8919
27.22	2.68815
27.44	0.563453
27.66	5.47142
27.88	5.33538
28.1	4.04792
28.32	17.2106
28.54	7.15478
28.76	13.9271
28.98	55.7345
29.2	5.71304
29.42	1.24462
29.64	4.98527
29.86	2.68291
30.08	2.55806
30.3	1.39458
30.52	7.20491
30.74	2.26736
30.96	0.329815
31.18	20.307
31.4	11.1762
31.62	2.86081
31.84	14.442
32.06	0.086179
32.28	44.9475
32.5	1.98927
32.72	2.27387
32.94	101.445
33.16	37.5753
33.38	81.5359
33.6	3.22031
33.82	1.36513
34.04	8.59512
34.26	17.8442
34.48	6.13069
34.7	3.62024
34.92	2.93078
35.14	2.75008
35.36	4.96023
35.58	21.4656
35.8	2.70085
36.02	5.24533
36.24	3.17048
36.46	4.00566
36.68	7.87498
36.9	0.306079
37.12	5.31842
37.34	0.031098
37.56	34.9327
37.78	6.54837
38	3.49532
38.22	4.56106
38.44	3.79795
38.66	15.0192
38.88	10.1664
39.1	3.36772
39.32	1.56734
39.54	1.04367
39.76	5.08966
39.98	18.3944
40.2	6.64125
40.42	19.5509
40.64	1.21347
40.86	8.86965
41.08	3.85056
41.3	1.11118
41.52	4.31387
41.74	3.25845
41.96	0.986494
42.18	1.78193
42.4	3.60476
42.62	0.373919
42.84	8.09422
43.06	22.807
43.28	5.62204
43.5	6.51423
43.72	1.44332
43.94	52.2984
44.16	0.26981
44.38	0.140965
44.6	0.983027
44.82	22.2176
45.04	2.57432
45.26	2.61495
45.48	3.81489
45.7	5.79961
45.92	10.9366
46.14	7.11719
46.36	10.3142
46.58	6.99372
46.8	38.9916
47.02	0.852495
47.24	0.078723
47.46	5.02153
47.68	0.096321
47.9	3.87777
48.12	1.87169
48.34	2.77544
48.56	10.6164
48.78	11.5476
49	1.65872
49.22	6.85233
49.44	26.8692
49.66	6.9641
49.88	3.26014
50.1	5.48334
50.32	0.715465
50.54	3.86967
50.76	3.021
50.98	1.09331
51.2	3.88165
51.42	3.79225
51.64	2.62168
51.86	6.8011
52.08	3.75936
52.3	5.61217
52.52	8.42353
52.74	6.20629
52.96	1.14588
53.18	5.00188
53.4	4.03896
53.62	13.0039
53.84	2.06875
54.06	1.09262
54.28	8.82694
54.5	14.0455
54.72	0.367702
54.94	9.65039
55.16	4.56604
55.38	3.33615
55.6	2.20887
55.82	4.90579
56.04	4.62906
56.26	5.25376
56.48	4.94867
56.7	7.62657
56.92	13.1535
57.14	13.6021
57.36	2.30223
57.58	5.52506
57.8	0.679655
58.02	0.850877
58.24	4.49103
58.46	1.23521
58.68	7.06551
58.9	1.63779
59.12	1.63078
59.34	1.77803
59.56	7.29741
59.78	13.3037
60	10.4423
60.22	31.4955
60.44	2.24104
60.66	4.22237
60.88	3.3942
61.1	3.48643
61.32	2.68808
61.54	1.83125
61.76	6.14022
61.98	0.016207
62.2	9.17043
62.42	4.13835
62.64	3.1471
62.86	5.1078
63.08	2.03527
63.3	6.84503
63.52	0.652427
63.74	3.72446
63.96	6.6025
64.18	15.2831
64.4	26.0373
64.62	10.7943
64.84	0.075197
65.06	4.87183
65.28	5.88933
65.5	5.93794
65.72	2.07349
65.94	1.97825
66.16	5.11221
66.38	0.926502
66.6	2.09618
66.82	1.16895
67.04	6.11783
67.26	3.06347
67.48	25.1742
67.7	17.1853
67.92	0.211856
68.14	8.33334
68.36	0.645272
68.58	4.23998
68.8	5.30203
69.02	4.39716
69.24	0.567537
69.46	5.57178
69.68	14.6727
69.9	5.68653
70.12	9.85087
70.34	2.75085
70.56	1.81698
70.78	3.84167
71	0.062044
71.22	3.15195
71.44	4.20569
71.66	0.264516
71.88	7.14755
72.1	5.06322
72.32	7.03155
72.54	0.85873
72.76	0.935893
72.98	5.05311
73.2	3.08159
73.42	14.0121
73.64	5.78621
73.86	5.69296
74.08	7.65898
74.3	2.77259
74.52	3.73948
74.74	14.7189
74.96	10.8038
75.18	5.63837
75.4	5.69727
75.62	5.82641
75.84	11.7805
76.06	7.74132
76.28	6.69787
76.5	2.59703
76.72	4.38619
76.94	3.3752
77.16	15.2143
77.38	7.26945
77.6	3.28161
77.82	3.12157
78.04	3.86793
78.26	3.91858
78.48	6.07984
78.7	7.16737
78.92	4.26297
79.14	12.3705
79.36	8.44282
79.58	4.57363
79.8	1.45578
80.02	2.67387
80.24	0.744091
80.46	3.89975
80.68	6.16974
80.9	4.11542
81.12	10.2843
81.34	8.35639
81.56	0.460517
81.78	0.473382
82	2.5324
82.22	4.49702
82.44	4.50404
82.66	1.43714
82.88	3.35364
83.1	4.2528
83.32	8.42489
83.54	2.28539
83.76	6.20453
83.98	4.06151
84.2	0.025891
84.42	0.168444
84.64	7.77419
84.86	1.682
85.08	2.59443
85.3	4.45826
85.52	1.3448
85.74	6.10626
85.96	4.25129
86.18	0.357975
86.4	1.41698
86.62	2.78748
86.84	2.90957
87.06	1.21011
87.28	3.31419
87.5	0.489744
87.72	3.60743
87.94	5.64975
88.16	0.689356
88.38	2.73889
88.6	3.69694
88.82	8.56919
89.04	9.41453
89.26	4.10492
89.48	1.0047
89.7	2.13546
89.92	6.95835
