Measurement: Powder, Xray Data XY Processed
Mineral: Zunyite
Rruff sample: R050263
Ideal chemistry: Al_13_Si_5_O_20_(OH,F)_18_Cl
Locality: Ruby Mountain, Tintic District, Utah, USA
Source: Marcus Origlieri
Description: Colorless tetrahedral crystals
Diffraction sample description: Powder
Measured chemistry: Al_13.00_Si_5.00_O_20_((OH)_14.80_F_3.20_)_Σ=18_Cl_1.00_ ; gray phase. (Al_12.92_Fe^3+^_0.08_)_Σ=13_Si_5.00_O_20_((OH)_14.86_F_3.14_)_Σ=18_Cl_1.00_ rim, lighter phase
Cell parameters: a: 13.8704(3) b: 13.8704(3) c: 13.8704(3) alpha: 90 beta: 90 gamma: 90 volume: 2668.5(0) crystal system: cubic
x	intensity
5	0
5.22	13.0299
5.44	7.07361
5.66	15.198
5.88	2.9872
6.1	10.1115
6.32	12.8455
6.54	3.83421
6.76	10.1162
6.98	10.6525
7.2	12.6163
7.42	19.3039
7.64	12.0495
7.86	13.0869
8.08	17.9592
8.3	9.25575
8.52	5.73354
8.74	6.03036
8.96	4.25628
9.18	15.3705
9.4	15.4785
9.62	10.8082
9.84	15.3735
10.06	2.90195
10.28	12.0756
10.5	11.1178
10.72	17.2968
10.94	57.2394
11.16	75.0841
11.38	3.28315
11.6	4.35199
11.82	6.15046
12.04	20.4116
12.26	15.1978
12.48	14.7427
12.7	16.3916
12.92	9.48222
13.14	7.52582
13.36	7.6245
13.58	6.73715
13.8	20.2905
14.02	6.56781
14.24	8.79232
14.46	4.13278
14.68	9.95195
14.9	2.63168
15.12	7.79302
15.34	4.41743
15.56	15.9099
15.78	11.0211
16	13.8888
16.22	10.1975
16.44	0.429987
16.66	10.0941
16.88	11.0376
17.1	15.079
17.32	25.4171
17.54	12.8772
17.76	11.4832
17.98	1.04887
18.2	15.9362
18.42	6.90068
18.64	5.5377
18.86	12.9639
19.08	0.164217
19.3	15.6732
19.52	1.90858
19.74	15.3823
19.96	15.1068
20.18	6.14783
20.4	4.58069
20.62	9.12579
20.84	4.43498
21.06	46.1232
21.28	749.209
21.5	22.7852
21.72	10.8585
21.94	4.26451
22.16	83.6806
22.38	20.4228
22.6	12.9719
22.82	2.34291
23.04	0.680187
23.26	5.02479
23.48	2.52712
23.7	16.537
23.92	23.9552
24.14	17.2267
24.36	1.49568
24.58	12.8673
24.8	2.28647
25.02	8.03511
25.24	6.81133
25.46	5.21075
25.68	14.0512
25.9	15.0237
26.12	21.4049
26.34	10.2806
26.56	37.3922
26.78	10.1976
27	7.03888
27.22	13.9161
27.44	14.9068
27.66	15.4949
27.88	5.26509
28.1	58.7383
28.32	0.979393
28.54	10.8521
28.76	19.8684
28.98	17.7059
29.2	101.087
29.42	37.7963
29.64	132.449
29.86	36.0558
30.08	17.4972
30.3	78.6072
30.52	27.5939
30.74	0.747036
30.96	6.05079
31.18	5.95664
31.4	13.1187
31.62	244.28
31.84	15.4162
32.06	4.03205
32.28	0.215973
32.5	6.87025
32.72	2.8558
32.94	13.4187
33.16	5.69191
33.38	4.01855
33.6	554.408
33.82	28.9445
34.04	19.1267
34.26	8.0269
34.48	11.609
34.7	14.7199
34.92	10.904
35.14	5.05994
35.36	2.07742
35.58	10.1959
35.8	6.98138
36.02	15.293
36.24	4.74327
36.46	19.8349
36.68	62.1532
36.9	12.4802
37.12	4.83361
37.34	7.03188
37.56	10.2372
37.78	4.09172
38	8.46912
38.22	17.0791
38.44	43.3084
38.66	18.6075
38.88	8.57647
39.1	0.989601
39.32	6.7001
39.54	10.5021
39.76	13.373
39.98	6.30019
40.2	14.9011
40.42	19.5596
40.64	17.6777
40.86	1.10306
41.08	1.17987
41.3	12.0385
41.52	10.8204
41.74	7.49094
41.96	4.25057
42.18	0.053791
42.4	18.1923
42.62	19.9474
42.84	97.1949
43.06	34.3002
43.28	43.4877
43.5	32.3632
43.72	9.30477
43.94	13.5868
44.16	6.20898
44.38	7.93935
44.6	8.6196
44.82	4.0442
45.04	14.8167
45.26	131.274
45.48	52.8062
45.7	23.044
45.92	7.35402
46.14	10.1516
46.36	8.32262
46.58	11.4809
46.8	44.5655
47.02	23.9579
47.24	3.79389
47.46	0.677519
47.68	20.7085
47.9	10.1647
48.12	11.515
48.34	13.2866
48.56	2.53061
48.78	6.2799
49	32.5721
49.22	43.8481
49.44	5.92791
49.66	8.48479
49.88	2.72426
50.1	1.24338
50.32	3.78645
50.54	89.4942
50.76	21.903
50.98	14.3712
51.2	8.01167
51.42	1.54497
51.64	7.90721
51.86	6.95761
52.08	7.07197
52.3	6.99123
52.52	15.7413
52.74	9.79593
52.96	15.1696
53.18	6.23234
53.4	13.008
53.62	0.954468
53.84	3.65229
54.06	7.01424
54.28	12.2285
54.5	19.6492
54.72	25.5651
54.94	5.38345
55.16	7.10978
55.38	13.0855
55.6	5.19318
55.82	3.22747
56.04	12.5733
56.26	197.558
56.48	42.5568
56.7	22.9274
56.92	2.12643
57.14	2.33968
57.36	1.55566
57.58	32.0332
57.8	19.9036
58.02	13.5132
58.24	2.47649
58.46	10.0138
58.68	15.096
58.9	7.46956
59.12	6.91237
59.34	12.0494
59.56	15.5964
59.78	10.1236
60	6.90214
60.22	6.48199
60.44	6.80607
60.66	18.849
60.88	35.7083
61.1	18.265
61.32	28.2332
61.54	10.0242
61.76	11.1395
61.98	16.2878
62.2	11.7895
62.42	4.9608
62.64	13.0245
62.86	11.9847
63.08	4.37291
63.3	1.10155
63.52	7.5459
63.74	15.3769
63.96	24.5476
64.18	31.5333
64.4	11.8035
64.62	10.6329
64.84	6.13315
65.06	2.01406
65.28	2.82905
65.5	4.05504
65.72	6.74241
65.94	40.4768
66.16	23.2827
66.38	11.7757
66.6	5.87517
66.82	6.4035
67.04	25.9338
67.26	25.8667
67.48	26.0399
67.7	18.9194
67.92	4.66594
68.14	7.62094
68.36	5.42556
68.58	13.5142
68.8	4.27199
69.02	17.2438
69.24	18.9187
69.46	2.81558
69.68	6.92118
69.9	16.0582
70.12	51.2113
70.34	39.6726
70.56	19.3855
70.78	25.2254
71	0.327507
71.22	8.59689
71.44	6.65849
71.66	7.27497
71.88	3.67763
72.1	1.9285
72.32	11.2629
72.54	9.76916
72.76	12.2764
72.98	8.98011
73.2	1.72915
73.42	4.45567
73.64	18.1207
73.86	5.71071
74.08	12.6216
74.3	9.7004
74.52	11.5167
74.74	11.3836
74.96	30.6
75.18	27.453
75.4	5.53741
75.62	11.5452
75.84	9.62255
76.06	19.9152
76.28	29.0165
76.5	12.9615
76.72	12.7639
76.94	8.55324
77.16	2.80987
77.38	5.329
77.6	7.55764
77.82	14.3375
78.04	7.13541
78.26	14.7371
78.48	2.1585
78.7	16.7573
78.92	20.7315
79.14	18.2711
79.36	9.69501
79.58	6.79631
79.8	21.3868
80.02	7.22733
80.24	7.61114
80.46	1.85606
80.68	11.1945
80.9	11.2858
81.12	1.35337
81.34	11.4481
81.56	4.50762
81.78	23.3886
82	22.9958
82.22	22.2356
82.44	6.38662
82.66	1.29253
82.88	10.3027
83.1	5.62469
83.32	12.0026
83.54	17.9277
83.76	5.96258
83.98	8.76063
84.2	10.8943
84.42	10.4034
84.64	7.83104
84.86	8.7868
85.08	8.9486
85.3	17.7479
85.52	4.60445
85.74	13.3457
85.96	7.85134
86.18	1.08595
86.4	13.2654
86.62	11.2479
86.84	7.29477
87.06	8.24406
87.28	10.4712
87.5	9.51511
87.72	16.5305
87.94	2.61873
88.16	7.74674
88.38	16.2768
88.6	7.2794
88.82	8.91245
89.04	9.12489
89.26	17.5613
89.48	2.36958
89.7	10.1326
89.92	4.86177
