Measurement: Powder, Xray Data XY Processed
Mineral: Zunyite
Rruff sample: R050553
Ideal chemistry: Al_13_Si_5_O_20_(OH,F)_18_Cl
Locality: near Quartzsite, Yuma/La Paz Counties, Arizona, USA
Source: Dave Bunk Minerals
Description: Light gray crystals showing combined octahedral and tetrahedral forms
Diffraction sample description: Powder
Measured chemistry: (Al_12.99_Fe^3+^_0.01_)_Σ=13_Si_5.00_O_20_((OH)_14.89_F_3.11_)_Σ=18_Cl_1.00_
Cell parameters: a: 13.8690(1) b: 13.8690(1) c: 13.8690(1) alpha: 90. beta: 90. gamma: 90. volume: 2667.69(7) crystal system: cubic
x	intensity
5	0
5.22	15.79
5.44	12.175
5.66	5.262
5.88	12.015
6.1	4.458
6.32	9.27
6.54	11.903
6.76	15.573
6.98	9.354
7.2	23.384
7.42	17.713
7.64	9.085
7.86	4.514
8.08	2.059
8.3	9.645
8.52	2.246
8.74	7.755
8.96	2.156
9.18	3.399
9.4	4.74
9.62	16.374
9.84	2.314
10.06	4.34
10.28	4.209
10.5	4.235
10.72	9.123
10.94	58.998
11.16	59.137
11.38	20.335
11.6	4.445
11.82	9.306
12.04	9.736
12.26	6.297
12.48	0.242
12.7	15.212
12.92	4.689
13.14	6.077
13.36	0.599
13.58	3.817
13.8	0.967
14.02	9.305
14.24	2.503
14.46	2.627
14.68	4.645
14.9	3.776
15.12	2.715
15.34	3.709
15.56	8.906
15.78	3.923
16	0.876
16.22	5.723
16.44	7.578
16.66	7.528
16.88	3.268
17.1	1.153
17.32	1.986
17.54	1.154
17.76	1.156
17.98	4.992
18.2	8.987
18.42	4.989
18.64	7.131
18.86	1.548
19.08	2.503
19.3	1.934
19.52	3.912
19.74	2.646
19.96	3.135
20.18	5.713
20.4	3.295
20.62	2.398
20.84	12.161
21.06	11.498
21.28	797.954
21.5	24.636
21.72	3.472
21.94	1.53
22.16	83.934
22.38	15.362
22.6	6.77
22.82	4.358
23.04	1.151
23.26	1.363
23.48	5.849
23.7	4.283
23.92	4.514
24.14	1.492
24.36	2.557
24.58	4.33
24.8	0.221
25.02	1.278
25.24	3.045
25.46	7.229
25.68	19.099
25.9	3.074
26.12	2.994
26.34	1.917
26.56	5.702
26.78	4.643
27	12.597
27.22	7.5
27.44	21.498
27.66	1.512
27.88	3.625
28.1	74.627
28.32	8.656
28.54	8.875
28.76	3.018
28.98	0.01
29.2	3.943
29.42	1.007
29.64	0.956
29.86	6.778
30.08	29.605
30.3	15.139
30.52	6.874
30.74	10.434
30.96	6.38
31.18	0.6
31.4	4.365
31.62	298.3
31.84	20.125
32.06	5.319
32.28	0.792
32.5	8.009
32.72	0.958
32.94	1.913
33.16	1.836
33.38	14.945
33.6	822.751
33.82	25.881
34.04	8.862
34.26	4.962
34.48	7.001
34.7	0.725
34.92	2.395
35.14	5.6
35.36	6.751
35.58	7.759
35.8	10.711
36.02	12.976
36.24	6.167
36.46	4.294
36.68	58.309
36.9	11.321
37.12	4.171
37.34	0.846
37.56	4.031
37.78	5.038
38	6.016
38.22	11.017
38.44	27.849
38.66	2.561
38.88	9.436
39.1	1.382
39.32	4.317
39.54	9.56
39.76	1.64
39.98	6.693
40.2	0.679
40.42	4.698
40.64	3.861
40.86	9.979
41.08	1.427
41.3	9.396
41.52	3.393
41.74	3.042
41.96	5.766
42.18	4.609
42.4	8.48
42.62	16.357
42.84	72.507
43.06	2.176
43.28	48.223
43.5	10.953
43.72	10.169
43.94	11.195
44.16	4.227
44.38	5.303
44.6	2.395
44.82	9.48
45.04	8.645
45.26	93.847
45.48	22.949
45.7	0.728
45.92	5.408
46.14	1.369
46.36	6.921
46.58	11.201
46.8	60.236
47.02	8.266
47.24	4.365
47.46	6.349
47.68	1.833
47.9	10.198
48.12	5.246
48.34	1.292
48.56	3.313
48.78	7.353
49	7.526
49.22	32.752
49.44	8.771
49.66	4.64
49.88	8.676
50.1	1.518
50.32	2.497
50.54	112.441
50.76	5.511
50.98	8.697
51.2	7.511
51.42	6.251
51.64	6.127
51.86	2.384
52.08	4.518
52.3	1.58
52.52	3.754
52.74	10.84
52.96	1.872
53.18	5.612
53.4	6.432
53.62	0.606
53.84	3.442
54.06	10.438
54.28	16.363
54.5	27.706
54.72	36.665
54.94	0.645
55.16	5.305
55.38	1.233
55.6	1.223
55.82	8.285
56.04	13.318
56.26	263.997
56.48	54.87
56.7	5.548
56.92	4.14
57.14	0.104
57.36	8.251
57.58	19.665
57.8	13.981
58.02	20.439
58.24	9.452
58.46	0.511
58.68	1.739
58.9	1.984
59.12	8.008
59.34	4.983
59.56	6.004
59.78	6.786
60	1.625
60.22	2.103
60.44	2.796
60.66	12.728
60.88	38.743
61.1	10.883
61.32	7.831
61.54	3.136
61.76	3.838
61.98	6.02
62.2	9.274
62.42	6.371
62.64	5.607
62.86	3.533
63.08	1.507
63.3	1.749
63.52	4.685
63.74	7.083
63.96	17.29
64.18	16.746
64.4	1.252
64.62	6.602
64.84	4.524
65.06	5.263
65.28	0.896
65.5	0.946
65.72	13.677
65.94	32.112
66.16	38.721
66.38	5.402
66.6	3.921
66.82	9.916
67.04	19.043
67.26	23.303
67.48	16.373
67.7	10.453
67.92	2.305
68.14	11.396
68.36	7.618
68.58	1.649
68.8	6.643
69.02	19.597
69.24	15.407
69.46	0.182
69.68	5.119
69.9	4.261
70.12	30.53
70.34	26.745
70.56	33.414
70.78	15.495
71	1.8
71.22	4.009
71.44	4.373
71.66	3.702
71.88	4.813
72.1	5.786
72.32	8.75
72.54	3.694
72.76	8.624
72.98	1.404
73.2	11.531
73.42	5.572
73.64	7.535
73.86	4.177
74.08	3.111
74.3	1.085
74.52	7.38
74.74	4.311
74.96	29.147
75.18	21.987
75.4	2.717
75.62	3.865
75.84	3.649
76.06	20.762
76.28	6.897
76.5	0.926
76.72	4.018
76.94	6.606
77.16	3.593
77.38	6.68
77.6	7.748
77.82	10.555
78.04	11.265
78.26	2.222
78.48	8.032
78.7	3.042
78.92	6.009
79.14	9.078
79.36	18.575
79.58	11.669
79.8	3.736
80.02	1.002
80.24	6.224
80.46	1.511
80.68	5.617
80.9	0.424
81.12	1.483
81.34	9.352
81.56	3.248
81.78	14.007
82	4.085
82.22	13.102
82.44	9.764
82.66	5.692
82.88	1.557
83.1	2.667
83.32	6.683
83.54	10.81
83.76	3.861
83.98	8.97
84.2	4.982
84.42	10.795
84.64	4.948
84.86	1.271
85.08	1.309
85.3	6.346
85.52	4.281
85.74	0.552
85.96	2.594
86.18	2.447
86.4	9.425
86.62	9.707
86.84	13.778
87.06	5.674
87.28	1.591
87.5	6.619
87.72	3.787
87.94	2.697
88.16	7.686
88.38	2.617
88.6	1.571
88.82	4.524
89.04	9.431
89.26	5.209
89.48	3.06
89.7	4.862
89.92	6.6
