Measurement: Powder, Xray Data XY Processed
Mineral: Zwieselite
Rruff sample: R050279
Ideal chemistry: Fe^2+^_2_PO_4_F
Locality: Cornelia mine, Hagendorf, Bavaria, Germany
Source: Marcus Origlieri
Description: Brown massive associated with bluish-gray triphylite R050366
Diffraction sample description: Powder
Measured chemistry: (Fe^2+^_1.08_Mn^2+^_0.86_Ca_0.06_)_Î£=2_(P_1.00_O_4_)F_1.00_
Cell parameters: a: 12.071(2) b: 10.004(2) c: 6.4968(7) alpha: 90 beta: 90 gamma: 106.98(2) volume: 750.3(2) crystal system: monoclinic
x	intensity
5	0
5.22	25.7408
5.44	27.1829
5.66	35.8618
5.88	26.6074
6.1	33.5748
6.32	21.8651
6.54	22.5315
6.76	8.9438
6.98	26.6663
7.2	19.9683
7.42	4.10355
7.64	19.1405
7.86	10.3325
8.08	23.2994
8.3	27.3695
8.52	2.35872
8.74	9.82706
8.96	17.7048
9.18	13.8974
9.4	31.8725
9.62	38.9193
9.84	16.8592
10.06	15.9079
10.28	18.0698
10.5	7.53324
10.72	45.7822
10.94	46.5471
11.16	10.3225
11.38	8.88188
11.6	16.2522
11.82	6.93098
12.04	21.2849
12.26	10.9485
12.48	25.0836
12.7	31.5861
12.92	17.3111
13.14	19.0211
13.36	14.5753
13.58	40.5082
13.8	37.5636
14.02	27.5044
14.24	47.969
14.46	32.103
14.68	17.8026
14.9	1.37651
15.12	9.53546
15.34	15.1192
15.56	14.9728
15.78	28.0367
16	22.6641
16.22	30.2019
16.44	19.5978
16.66	8.3725
16.88	22.758
17.1	32.6953
17.32	11.9558
17.54	27.5907
17.76	24.3133
17.98	21.5231
18.2	15.8631
18.42	17.9381
18.64	18.2836
18.86	0.284164
19.08	19.7347
19.3	31.1684
19.52	26.3021
19.74	29.3957
19.96	8.59966
20.18	19.5812
20.4	17.2369
20.62	15.2974
20.84	12.6846
21.06	9.56907
21.28	18.4121
21.5	25.3145
21.72	27.4255
21.94	36.2489
22.16	23.3485
22.38	3.53232
22.6	34.9072
22.82	9.78794
23.04	15.3621
23.26	30.1685
23.48	15.0947
23.7	24.3585
23.92	28.9942
24.14	21.5749
24.36	23.9918
24.58	40.1505
24.8	5.73893
25.02	13.334
25.24	25.6621
25.46	35.5195
25.68	2.9724
25.9	7.43473
26.12	32.0782
26.34	15.7828
26.56	24.7423
26.78	27.6479
27	43.2777
27.22	5.59701
27.44	28.5872
27.66	4.97871
27.88	8.4415
28.1	13.9604
28.32	6.45998
28.54	15.2206
28.76	14.5863
28.98	6.78946
29.2	34.2413
29.42	128.377
29.64	22.6633
29.86	8.54668
30.08	20.8056
30.3	34.7084
30.52	25.6325
30.74	7.31118
30.96	12.5792
31.18	137.521
31.4	54.1483
31.62	47.0354
31.84	20.0161
32.06	18.5347
32.28	8.49411
32.5	34.3092
32.72	17.5636
32.94	1.64948
33.16	25.2408
33.38	37.9631
33.6	0.344826
33.82	24.0098
34.04	0.54908
34.26	29.3292
34.48	40.6329
34.7	21.437
34.92	8.05097
35.14	24.9107
35.36	25.9412
35.58	30.4128
35.8	32.5024
36.02	36.4868
36.24	43.8487
36.46	16.8144
36.68	22.2016
36.9	1.33303
37.12	3.05689
37.34	11.3248
37.56	25.4337
37.78	28.4683
38	16.3837
38.22	25.8654
38.44	22.2355
38.66	27.9211
38.88	30.4529
39.1	20.4863
39.32	31.6908
39.54	16.4861
39.76	34.3918
39.98	21.2648
40.2	13.7753
40.42	8.34994
40.64	38.7713
40.86	13.9238
41.08	27.245
41.3	5.43736
41.52	19.3865
41.74	15.9213
41.96	13.6437
42.18	47.9365
42.4	23.5131
42.62	45.3701
42.84	36.7831
43.06	14.2597
43.28	11.4843
43.5	22.6535
43.72	21.5292
43.94	25.3718
44.16	17.2634
44.38	10.2412
44.6	11.0531
44.82	9.01301
45.04	19.1758
45.26	19.5653
45.48	6.68523
45.7	6.96033
45.92	21.8481
46.14	5.79835
46.36	18.4497
46.58	25.1834
46.8	36.6634
47.02	49.6734
47.24	34.6808
47.46	25.0544
47.68	20.1689
47.9	17.4575
48.12	36.2579
48.34	39.2727
48.56	9.03979
48.78	13.1354
49	13.2475
49.22	24.9824
49.44	1.88156
49.66	12.4498
49.88	6.9763
50.1	31.7464
50.32	7.99615
50.54	16.4534
50.76	21.135
50.98	12.2869
51.2	18.5108
51.42	11.5282
51.64	15.6177
51.86	32.2249
52.08	36.3258
52.3	14.8364
52.52	21.7707
52.74	6.56158
52.96	17.5519
53.18	6.94191
53.4	42.9043
53.62	22.1818
53.84	17.792
54.06	16.648
54.28	33.3798
54.5	8.68402
54.72	22.5702
54.94	21.6812
55.16	10.3412
55.38	2.05075
55.6	24.4238
55.82	7.97372
56.04	25.9642
56.26	43.0773
56.48	26.2196
56.7	0.018112
56.92	28.0287
57.14	15.8759
57.36	6.25789
57.58	9.02721
57.8	35.5954
58.02	13.295
58.24	4.78236
58.46	3.09857
58.68	24.7655
58.9	24.7598
59.12	21.1759
59.34	23.9033
59.56	37.796
59.78	20.1842
60	20.4005
60.22	27.1098
60.44	24.2203
60.66	31.3687
60.88	3.00749
61.1	28.3527
61.32	6.26259
61.54	32.0748
61.76	9.39457
61.98	12.35
62.2	14.2132
62.42	11.9452
62.64	0.521729
62.86	13.921
63.08	6.6226
63.3	14.4922
63.52	51.4937
63.74	37.3614
63.96	21.1035
64.18	24.7412
64.4	25.4477
64.62	16.6095
64.84	31.8654
65.06	28.3973
65.28	27.8609
65.5	42.9614
65.72	42.6686
65.94	20.1529
66.16	1.38772
66.38	36.6697
66.6	38.2098
66.82	13.1436
67.04	34.3133
67.26	34.6474
67.48	8.64668
67.7	31.7313
67.92	30.0744
68.14	4.46992
68.36	2.98682
68.58	30.1517
68.8	17.977
69.02	5.40006
69.24	9.7591
69.46	22.9172
69.68	13.3162
69.9	17.3873
70.12	41.8404
70.34	21.293
70.56	25.5994
70.78	24.7618
71	21.7301
71.22	24.6217
71.44	14.8356
71.66	16.563
71.88	7.95438
72.1	33.5269
72.32	28.6682
72.54	31.5251
72.76	46.8298
72.98	18.0816
73.2	45.1993
73.42	18.0344
73.64	15.1673
73.86	15.0559
74.08	27.1928
74.3	2.05067
74.52	12.8828
74.74	19.7996
74.96	13.4241
75.18	8.01379
75.4	26.2622
75.62	24.2903
75.84	3.98886
76.06	9.44315
76.28	28.8096
76.5	11.9672
76.72	6.49986
76.94	6.00227
77.16	7.95428
77.38	10.6704
77.6	33.6834
77.82	34.1406
78.04	7.31051
78.26	27.9579
78.48	8.26797
78.7	21.8378
78.92	10.4811
79.14	29.6934
79.36	46.1969
79.58	8.0571
79.8	11.4237
80.02	24.3634
80.24	6.4753
80.46	22.2309
80.68	8.89519
80.9	7.15031
81.12	22.1158
81.34	29.4736
81.56	23.4693
81.78	4.98313
82	43.694
82.22	15.2473
82.44	3.01586
82.66	3.60816
82.88	9.44765
83.1	3.28654
83.32	24.6507
83.54	17.9953
83.76	14.9632
83.98	4.19475
84.2	16.3955
84.42	31.2253
84.64	26.8102
84.86	23.6144
85.08	14.1452
85.3	31.9721
85.52	6.75123
85.74	10.206
85.96	22.2667
86.18	20.3002
86.4	12.6202
86.62	38.9375
86.84	19.588
87.06	18.2198
87.28	16.9831
87.5	2.73849
87.72	14.3805
87.94	15.2348
88.16	12.7645
88.38	25.5232
88.6	33.7009
88.82	11.2058
89.04	20.2587
89.26	26.6096
89.48	15.4908
89.7	0.795471
89.92	28.9782
