Measurement: Powder, Xray Data XY Processed
Mineral: Zykaite
Rruff sample: R070477
Ideal chemistry: Fe^3+^_4_(As^5+^O_4_)_3_S^6+^O_4_(OH)15H_2_O
Locality: Christbescherung mine, Gro√üvoigtsberg, Freiberg District, Erzgebirge, Saxony, Germany
Source: Michael Scott
Description: Very small acicular crystals forming a coating of tan colored nodules
Diffraction sample description: Powder
x	intensity
5	0
5.22	10.7069
5.44	9.26509
5.66	46.1512
5.88	2.56155
6.1	32.6908
6.32	14.2409
6.54	19.9622
6.76	14.3709
6.98	42.8603
7.2	6.24203
7.42	21.4901
7.64	6.26991
7.86	32.1157
8.08	26.5435
8.3	54.5667
8.52	99.6248
8.74	353.099
8.96	72.2826
9.18	50.1407
9.4	14.1414
9.62	12.9463
9.84	23.1286
10.06	24.1121
10.28	46.9426
10.5	46.236
10.72	19.7202
10.94	33.4086
11.16	27.9987
11.38	16.5223
11.6	15.7691
11.82	7.66571
12.04	51.0795
12.26	19.3241
12.48	9.25883
12.7	3.60756
12.92	73.4109
13.14	21.4303
13.36	18.2858
13.58	43.6648
13.8	9.45666
14.02	6.41983
14.24	31.1403
14.46	7.90388
14.68	32.3119
14.9	41.0139
15.12	3.67168
15.34	25.9878
15.56	2.45621
15.78	49.3436
16	9.36255
16.22	31.9651
16.44	35.1168
16.66	16.3846
16.88	6.127
17.1	7.12979
17.32	6.67845
17.54	8.42906
17.76	10.0026
17.98	39.6846
18.2	36.458
18.42	10.6672
18.64	21.1183
18.86	19.6701
19.08	28.7208
19.3	2.60878
19.52	14.7641
19.74	54.3621
19.96	9.75789
20.18	28.3082
20.4	7.77477
20.62	29.3373
20.84	6.97423
21.06	25.7862
21.28	53.9083
21.5	50.5658
21.72	46.8961
21.94	3.33275
22.16	8.91002
22.38	23.2714
22.6	8.41145
22.82	32.8958
23.04	13.895
23.26	30.9936
23.48	36.74
23.7	26.8076
23.92	8.91554
24.14	49.9373
24.36	23.4442
24.58	20.165
24.8	16.0533
25.02	15.7377
25.24	16.4363
25.46	3.3177
25.68	18.6837
25.9	25.7827
26.12	19.7595
26.34	31.1071
26.56	9.16495
26.78	23.1379
27	5.84659
27.22	32.4301
27.44	53.9706
27.66	50.9374
27.88	18.086
28.1	8.02054
28.32	24.581
28.54	30.4676
28.76	10.6316
28.98	36.7945
29.2	49.8899
29.42	12.1621
29.64	23.2411
29.86	7.98198
30.08	24.9906
30.3	44.3297
30.52	31.9769
30.74	35.3165
30.96	19.5026
31.18	22.6847
31.4	2.52547
31.62	26.7936
31.84	13.9806
32.06	9.48259
32.28	23.7413
32.5	38.157
32.72	27.9178
32.94	37.4729
33.16	19.4837
33.38	19.6472
33.6	3.47124
33.82	40.2186
34.04	9.73254
34.26	32.0881
34.48	9.6239
34.7	0.791199
34.92	14.3439
35.14	5.31226
35.36	30.0586
35.58	22.6165
35.8	9.25436
36.02	5.8382
36.24	29.8813
36.46	13.6041
36.68	11.5927
36.9	12.3442
37.12	19.736
37.34	31.0399
37.56	26.6009
37.78	34.9812
38	49.1552
38.22	11.9724
38.44	4.72111
38.66	26.5301
38.88	28.8076
39.1	12.0114
39.32	27.4275
39.54	19.3436
39.76	11.04
39.98	13.2636
40.2	5.95467
40.42	25.7582
40.64	6.82236
40.86	27.3058
41.08	6.19903
41.3	26.3576
41.52	26.1103
41.74	12.7658
41.96	29.191
42.18	11.6581
42.4	51.7182
42.62	34.0868
42.84	17.9187
43.06	43.6046
43.28	18.0276
43.5	22.9834
43.72	22.4213
43.94	50.9506
44.16	17.6861
44.38	13.4509
44.6	1.96684
44.82	8.15239
45.04	25.6825
45.26	25.289
45.48	24.2727
45.7	4.75799
45.92	0.639908
46.14	17.8845
46.36	15.525
46.58	15.87
46.8	40.3845
47.02	26.4439
47.24	38.3663
47.46	38.6948
47.68	3.49763
47.9	10.8445
48.12	34.9118
48.34	5.45523
48.56	14.146
48.78	18.8686
49	2.99759
49.22	3.99787
49.44	13.6709
49.66	18.5509
49.88	9.06194
50.1	3.60556
50.32	14.9281
50.54	7.52773
50.76	13.6613
50.98	9.70059
51.2	12.6137
51.42	20.8824
51.64	6.06062
51.86	33.7217
52.08	37.0887
52.3	23.6365
52.52	24.7434
52.74	19.6805
52.96	20.8682
53.18	24.2383
53.4	4.16961
53.62	8.6593
53.84	13.0403
54.06	28.3707
54.28	21.8575
54.5	20.6094
54.72	3.813
54.94	22.6749
55.16	6.19678
55.38	3.38672
55.6	21.4054
55.82	3.92447
56.04	25.5882
56.26	36.6963
56.48	6.20909
56.7	18.3362
56.92	18.626
57.14	26.6407
57.36	17.6482
57.58	21.5793
57.8	42.0723
58.02	22.7648
58.24	22.2468
58.46	31.6798
58.68	2.13318
58.9	8.09153
59.12	27.3158
59.34	35.6051
59.56	24.4254
59.78	15.3232
60	25.0068
60.22	27.9893
60.44	37.2718
60.66	8.94173
60.88	18.3784
61.1	10.6578
61.32	25.1683
61.54	17.3586
61.76	19.6076
61.98	20.0471
62.2	14.5631
62.42	17.6738
62.64	7.13886
62.86	6.41437
63.08	37.2479
63.3	2.93046
63.52	21.3632
63.74	14.747
63.96	30.0825
64.18	14.3216
64.4	6.64532
64.62	19.8761
64.84	27.8284
65.06	38.2104
65.28	15.8284
65.5	6.90895
65.72	26.1634
65.94	15.5311
66.16	1.15744
66.38	3.97617
66.6	13.3199
66.82	16.2263
67.04	23.4745
67.26	27.2542
67.48	20.4139
67.7	5.97751
67.92	20.7804
68.14	19.3615
68.36	7.87551
68.58	11.4535
68.8	19.6662
69.02	15.9966
69.24	21.1502
69.46	11.0771
69.68	19.0238
69.9	12.7966
70.12	9.35489
70.34	15.5964
70.56	19.9215
70.78	31.2532
71	10.9997
71.22	2.07134
71.44	16.8238
71.66	11.5737
71.88	40.8537
72.1	5.62922
72.32	27.6633
72.54	2.38006
72.76	3.22087
72.98	35.6814
73.2	15.7747
73.42	17.8842
73.64	8.50889
73.86	19.5621
74.08	19.2653
74.3	8.42075
74.52	9.24608
74.74	8.41886
74.96	14.4527
75.18	27.0276
75.4	4.14345
75.62	2.45891
75.84	20.1565
76.06	8.84057
76.28	8.31894
76.5	23.5077
76.72	14.8477
76.94	13.9964
77.16	16.8632
77.38	19.5007
77.6	16.4243
77.82	2.88942
78.04	1.60989
78.26	10.1906
78.48	6.66728
78.7	28.8698
78.92	7.51692
79.14	12.6002
79.36	4.66334
79.58	18.8423
79.8	8.65653
80.02	1.08685
80.24	35.918
80.46	22.9675
80.68	4.79391
80.9	2.09393
81.12	9.79189
81.34	1.46915
81.56	13.0727
81.78	27.7509
82	9.74862
82.22	17.9231
82.44	5.53265
82.66	15.3631
82.88	13.8736
83.1	1.76887
83.32	14.1912
83.54	19.9798
83.76	15.9948
83.98	9.64346
84.2	23.7459
84.42	2.63779
84.64	7.39862
84.86	18.3096
85.08	23.5568
85.3	1.51147
85.52	5.17969
85.74	26.1313
85.96	16.5595
86.18	30.3732
86.4	26.8007
86.62	5.98539
86.84	26.0049
87.06	20.1859
87.28	20.5297
87.5	1.35575
87.72	10.4881
87.94	1.15733
88.16	34.7883
88.38	0.404381
88.6	2.68595
88.82	36.2268
89.04	24.45
89.26	12.816
89.48	15.3444
89.7	20.8257
89.92	14.1071
