Measurement: Powder, Xray Data XY Processed
Mineral: Actinolite
Rruff sample: R060041
Ideal chemistry: Ca_2_(Mg_4.5-2.5_Fe^2+^_0.5-2.5_)Si_8_O_22_(OH)_2_
Locality: Prince of Wales Island, Alaska, USA
Source: University of Arizona Mineral Museum
Description: Green acicular crystals forming parallel groups in cylindrical or bladed forms
Diffraction sample description: Powder
Measured chemistry: (Ca_0.97_Na_0.03_)_2_(Mg_0.65_Fe^2+^_0.29_Fe^3+^_0.04_Al_0.01_Mn_0.01_)_5_(Si_0.98_Al_0.02_)_8_O_22_(OH)_2_
Cell parameters: a: 9.8768(4) b: 18.1315(9) c: 5.2943(3) alpha: 90 beta: 104.747(5) gamma: 90 volume: 916.87(6) crystal system: monoclinic
x	intensity
5	0
5.22	7.471
5.44	19.614
5.66	3.863
5.88	2.603
6.1	11.837
6.32	9.001
6.54	16.579
6.76	0.861
6.98	11.954
7.2	19.88
7.42	5.676
7.64	8.9
7.86	10.862
8.08	10.846
8.3	11.425
8.52	1.308
8.74	3.627
8.96	14.305
9.18	10.269
9.4	12.269
9.62	16.948
9.84	18.518
10.06	3.23
10.28	26.248
10.5	567.03
10.72	8.453
10.94	14.014
11.16	4.563
11.38	7.22
11.6	7.651
11.82	4.119
12.04	11.434
12.26	16.486
12.48	17.005
12.7	17.382
12.92	17.992
13.14	14.817
13.36	9.785
13.58	18.835
13.8	17.927
14.02	11.087
14.24	1.069
14.46	9.224
14.68	12.624
14.9	22.648
15.12	11.815
15.34	3.526
15.56	5.636
15.78	10.095
16	10.096
16.22	6.673
16.44	8.464
16.66	20.419
16.88	10.31
17.1	13.201
17.32	2.895
17.54	7.899
17.76	8.724
17.98	6.174
18.2	23.741
18.42	11.493
18.64	12.4
18.86	12.31
19.08	3.164
19.3	5.767
19.52	23.906
19.74	10.906
19.96	29.425
20.18	20.067
20.4	10.731
20.62	5.708
20.84	16.168
21.06	40.102
21.28	6.097
21.5	10.224
21.72	20.181
21.94	5.738
22.16	9.503
22.38	21.506
22.6	29.318
22.82	2.532
23.04	17.761
23.26	6.995
23.48	10.664
23.7	16.735
23.92	10.186
24.14	5.289
24.36	13.562
24.58	0.602
24.8	21.484
25.02	0.683
25.24	24.769
25.46	0.657
25.68	13.872
25.9	12.799
26.12	9.392
26.34	50.667
26.56	17.991
26.78	27.935
27	12.745
27.22	53.653
27.44	8.487
27.66	2.523
27.88	6.691
28.1	27.376
28.32	19.053
28.54	184.334
28.76	13.285
28.98	1.589
29.2	6.943
29.42	14.849
29.64	20.803
29.86	12.819
30.08	6.179
30.3	47.303
30.52	7.482
30.74	10.222
30.96	6.475
31.18	24.103
31.4	5.651
31.62	0.612
31.84	26.529
32.06	8.323
32.28	16.174
32.5	26.912
32.72	34.729
32.94	62.434
33.16	20.157
33.38	16.642
33.6	6.293
33.82	0.346
34.04	7.472
34.26	7.554
34.48	38.711
34.7	5.76
34.92	11.265
35.14	2.836
35.36	51.585
35.58	10.061
35.8	6.802
36.02	3.6
36.24	3.2
36.46	20.018
36.68	14.834
36.9	3.171
37.12	6.532
37.34	6.42
37.56	28.503
37.78	4.645
38	4.087
38.22	8.463
38.44	39.739
38.66	39.962
38.88	7.058
39.1	14.277
39.32	6.123
39.54	15.302
39.76	12.697
39.98	15.978
40.2	10.483
40.42	8.758
40.64	5.547
40.86	13.871
41.08	4.432
41.3	31.78
41.52	22.993
41.74	31.092
41.96	12.08
42.18	6.505
42.4	13.567
42.62	6.073
42.84	14.25
43.06	15.382
43.28	4.642
43.5	1.259
43.72	8.142
43.94	7.711
44.16	23.196
44.38	1.494
44.6	26.144
44.82	36.85
45.04	16.281
45.26	5.907
45.48	7.009
45.7	9.684
45.92	5.334
46.14	3.943
46.36	0.023
46.58	8.999
46.8	9.111
47.02	0.743
47.24	1.516
47.46	4.54
47.68	3.045
47.9	17.584
48.12	9.594
48.34	12.518
48.56	22.503
48.78	18.909
49	18.832
49.22	3.869
49.44	2.866
49.66	7.382
49.88	19.073
50.1	10.077
50.32	10.429
50.54	16.913
50.76	8.114
50.98	17.816
51.2	6.7
51.42	17.75
51.64	5.286
51.86	8.665
52.08	8.327
52.3	20.09
52.52	18.297
52.74	17.375
52.96	15.213
53.18	13.005
53.4	13.011
53.62	15.914
53.84	12.927
54.06	6.151
54.28	13.374
54.5	22.913
54.72	16.365
54.94	5.743
55.16	7.638
55.38	11.778
55.6	21.592
55.82	8.246
56.04	6.972
56.26	2.195
56.48	18.415
56.7	23.469
56.92	14.554
57.14	11.72
57.36	3.076
57.58	11.232
57.8	11.512
58.02	3.716
58.24	28.223
58.46	35.668
58.68	14.426
58.9	6.814
59.12	20.899
59.34	21.892
59.56	16.438
59.78	13.238
60	28.421
60.22	11.7
60.44	10.494
60.66	1.728
60.88	18.247
61.1	21.271
61.32	32.307
61.54	11.73
61.76	22.699
61.98	0.841
62.2	10.087
62.42	18.411
62.64	10.463
62.86	10.459
63.08	12.327
63.3	8.196
63.52	18.908
63.74	7.647
63.96	7.694
64.18	20.117
64.4	19.514
64.62	42.758
64.84	19.437
65.06	4.299
65.28	0.06
65.5	1.042
65.72	7.65
65.94	7.05
66.16	9.088
66.38	11.734
66.6	19.485
66.82	12.285
67.04	7.192
67.26	7.265
67.48	7.996
67.7	10.823
67.92	10.567
68.14	12.683
68.36	9.026
68.58	20.042
68.8	8.955
69.02	16.087
69.24	2.027
69.46	10.153
69.68	9.48
69.9	10.769
70.12	3.707
70.34	23.916
70.56	9.277
70.78	4.826
71	7.45
71.22	8.82
71.44	9.972
71.66	8.815
71.88	18.369
72.1	4.375
72.32	13.537
72.54	3.35
72.76	16.458
72.98	18.586
73.2	2.318
73.42	20.013
73.64	10.89
73.86	8.768
74.08	13.226
74.3	18.659
74.52	0.94
74.74	7.869
74.96	13.962
75.18	8.335
75.4	5.478
75.62	16.418
75.84	15.101
76.06	9.176
76.28	8.381
76.5	2.122
76.72	9.969
76.94	19.736
77.16	6.72
77.38	8.362
77.6	25.603
77.82	14.516
78.04	4.777
78.26	4.595
78.48	8.11
78.7	3.986
78.92	18.021
79.14	1.746
79.36	13.992
79.58	19.916
79.8	15.235
80.02	2.125
80.24	23.108
80.46	5.624
80.68	15.704
80.9	8.144
81.12	16.245
81.34	17.063
81.56	3.103
81.78	14.961
82	3.668
82.22	9.236
82.44	1.611
82.66	10.697
82.88	12.591
83.1	14.621
83.32	5.611
83.54	22.882
83.76	21.325
83.98	8.963
84.2	9.208
84.42	24.612
84.64	19.685
84.86	2.759
85.08	10.233
85.3	2.293
85.52	5.528
85.74	6.405
85.96	23.473
86.18	5.942
86.4	15.364
86.62	3.197
86.84	21.253
87.06	7.227
87.28	9.18
87.5	18.282
87.72	14.153
87.94	13.054
88.16	12.744
88.38	3.783
88.6	0.377
88.82	9.548
89.04	2.697
89.26	6.181
89.48	21.646
89.7	16.112
89.92	3.967
