Measurement: Powder, Xray Data XY Processed
Mineral: Albite
Rruff sample: R050253
Ideal chemistry: NaAlSi_3_O_8_
Locality: Madawaska/Faraday mine, Bancroft, Ontario, Canada
Source: Marcus Origlieri
Description: Colorless to brown prismatic single crystals
Diffraction sample description: Powder
Measured chemistry: (Na_0.99_Ca_0.01_)Al_1.00_(Si_0.99_Al_0.01_)_3_O_8_
Cell parameters: a: 8.1365(9) b: 12.788(1) c: 7.1584(4) alpha: 94.228(9) beta: 116.583(4) gamma: 87.704(9) volume: 664.23(7) crystal system: triclinic
x	intensity
5	0
5.22	7.995
5.44	15.016
5.66	2.872
5.88	15.771
6.1	20.03
6.32	8.875
6.54	18.651
6.76	13.595
6.98	3.514
7.2	13.719
7.42	7.433
7.64	7.534
7.86	3.123
8.08	1.232
8.3	4.307
8.52	2.837
8.74	0.255
8.96	6.349
9.18	4.737
9.4	11.898
9.62	6.941
9.84	11.044
10.06	2.782
10.28	2.752
10.5	2.334
10.72	3.746
10.94	6.944
11.16	0.864
11.38	1.71
11.6	0.691
11.82	6.452
12.04	5.265
12.26	0.175
12.48	14.349
12.7	5.255
12.92	8.182
13.14	3.676
13.36	2.58
13.58	2.625
13.8	23.212
14.02	32.133
14.24	5.149
14.46	4.447
14.68	1.567
14.9	5.736
15.12	3.855
15.34	7.18
15.56	11.384
15.78	5.394
16	2.768
16.22	9.553
16.44	5.671
16.66	6.782
16.88	6.887
17.1	4.031
17.32	12.755
17.54	6.968
17.76	0.976
17.98	2.931
18.2	4.914
18.42	9.742
18.64	2.662
18.86	2.615
19.08	1.598
19.3	0.632
19.52	6.413
19.74	3.365
19.96	9.705
20.18	11.271
20.4	1.95
20.62	2.905
20.84	8.392
21.06	2.068
21.28	10.809
21.5	5.625
21.72	3.916
21.94	24.236
22.16	82.476
22.38	12.408
22.6	4.71
22.82	1.08
23.04	26.033
23.26	6.432
23.48	43.006
23.7	28.719
23.92	3.376
24.14	94.029
24.36	224.153
24.58	13.076
24.8	8.225
25.02	13.417
25.24	11.873
25.46	57.193
25.68	27.324
25.9	6.874
26.12	7.333
26.34	12.736
26.56	5.309
26.78	5.84
27	6.227
27.22	6.558
27.44	4.13
27.66	51.554
27.88	369.544
28.1	210.94
28.32	167.779
28.54	12.703
28.76	4.281
28.98	15.487
29.2	1.669
29.42	13.901
29.64	18.261
29.86	6.892
30.08	41.379
30.3	69.128
30.52	179.981
30.74	7.819
30.96	4.676
31.18	32.095
31.4	7.263
31.62	9.423
31.84	9.188
32.06	0.731
32.28	7.336
32.5	4.839
32.72	11.273
32.94	7.506
33.16	6.411
33.38	0.014
33.6	1.946
33.82	3.41
34.04	27.88
34.26	5.729
34.48	2.979
34.7	9.917
34.92	3.558
35.14	33.263
35.36	14.106
35.58	12.506
35.8	2.119
36.02	11.52
36.24	11.416
36.46	10.328
36.68	11.283
36.9	15.056
37.12	6.312
37.34	36.915
37.56	8.359
37.78	38.678
38	2.117
38.22	5.73
38.44	11.199
38.66	5.78
38.88	24.477
39.1	1.095
39.32	5.908
39.54	23.665
39.76	1.99
39.98	14.056
40.2	8.007
40.42	4.793
40.64	7.759
40.86	7.669
41.08	9.483
41.3	14.139
41.52	3.974
41.74	5.722
41.96	13.131
42.18	0.125
42.4	9.666
42.62	34.769
42.84	15.81
43.06	6.67
43.28	14.757
43.5	12.449
43.72	19.66
43.94	3.819
44.16	3.526
44.38	7.23
44.6	8.219
44.82	6.29
45.04	7.232
45.26	9.661
45.48	15.484
45.7	1.588
45.92	8.074
46.14	12.725
46.36	1.255
46.58	7.753
46.8	2.713
47.02	1.432
47.24	8.366
47.46	7.349
47.68	8.657
47.9	8.715
48.12	36.144
48.34	18.253
48.56	1.671
48.78	0.008
49	2.45
49.22	30.946
49.44	10.783
49.66	2.456
49.88	25.43
50.1	58.231
50.32	10.92
50.54	14.687
50.76	24.988
50.98	4.341
51.2	39.726
51.42	6.328
51.64	5.938
51.86	2.756
52.08	9.257
52.3	10.282
52.52	22.269
52.74	14.566
52.96	8.514
53.18	29.913
53.4	15.196
53.62	1.386
53.84	8.664
54.06	4.519
54.28	0.418
54.5	14.725
54.72	8.071
54.94	4.633
55.16	14.819
55.38	2.094
55.6	2.724
55.82	7.79
56.04	10.303
56.26	3.483
56.48	0.476
56.7	1.239
56.92	3.19
57.14	2.779
57.36	1.363
57.58	18.058
57.8	16.548
58.02	4.076
58.24	9.874
58.46	5.507
58.68	29.363
58.9	14.674
59.12	11.982
59.34	14.017
59.56	0.755
59.78	3.337
60	3.854
60.22	1.029
60.44	17.094
60.66	12.141
60.88	4.002
61.1	2.948
61.32	1.349
61.54	3.372
61.76	10.237
61.98	8.238
62.2	7.969
62.42	5.148
62.64	0.37
62.86	2.5
63.08	5.448
63.3	6.963
63.52	24.783
63.74	24.02
63.96	11.03
64.18	4.935
64.4	8.634
64.62	1.592
64.84	10.205
65.06	7.101
65.28	21.116
65.5	8.829
65.72	6.434
65.94	13.779
66.16	18.118
66.38	6.08
66.6	3.296
66.82	3.415
67.04	1.554
67.26	3.676
67.48	2.755
67.7	7.825
67.92	12.928
68.14	7.946
68.36	9.439
68.58	2.125
68.8	6.896
69.02	3.8
69.24	13.109
69.46	15.343
69.68	13.287
69.9	13.201
70.12	7.395
70.34	2.512
70.56	2.567
70.78	6.786
71	5.088
71.22	3.63
71.44	8.131
71.66	4.231
71.88	13.659
72.1	6.005
72.32	2.489
72.54	8.841
72.76	3.788
72.98	5.835
73.2	2.882
73.42	1.894
73.64	5.502
73.86	7.979
74.08	8.786
74.3	15.35
74.52	5.118
74.74	8.978
74.96	9.927
75.18	7.305
75.4	13.952
75.62	8.997
75.84	3.024
76.06	7.272
76.28	4.508
76.5	1.49
76.72	5.788
76.94	12.79
77.16	7.679
77.38	6.458
77.6	9.459
77.82	4.074
78.04	9.145
78.26	9.28
78.48	5.441
78.7	3.561
78.92	7.782
79.14	6.667
79.36	2.859
79.58	12.12
79.8	5.169
80.02	19.25
80.24	9.836
80.46	9.081
80.68	8.049
80.9	2.838
81.12	3.853
81.34	8.769
81.56	6.912
81.78	15.013
82	13.931
82.22	13.935
82.44	3.751
82.66	0.527
82.88	8.711
83.1	9.972
83.32	10.961
83.54	12.212
83.76	1.815
83.98	5.128
84.2	8.921
84.42	5.797
84.64	4.687
84.86	7.445
85.08	5.061
85.3	12.636
85.52	3.284
85.74	10.365
85.96	6.059
86.18	11.12
86.4	0.295
86.62	3.498
86.84	5.653
87.06	2.942
87.28	1.249
87.5	5.557
87.72	7.756
87.94	3.018
88.16	0.15
88.38	11.376
88.6	1.796
88.82	0.827
89.04	1.069
89.26	0.368
89.48	4.712
89.7	9.262
89.92	1.104
