Measurement: Powder, Xray Data XY Processed
Mineral: Almandine
Rruff sample: R060450
Ideal chemistry: Fe^2+^_3_Al_2_(SiO_4_)_3_
Locality: Canada
Source: Gemological Institute of America
Description: Reddish-brown translucent fragment
Diffraction sample description: Powder
Measured chemistry: (Fe^2+^_1.92_Mg_1.03_Ca_0.04_Mn_0.01_)_Î£=3_Al_2.00_(Si_1.00_O_4_)_3_
Cell parameters: a: 11.5107(2) b: 11.5107(2) c: 11.5107(2) alpha: 90. beta: 90. gamma: 90. volume: 1525.12(8) crystal system: cubic
x	intensity
5	0
5.22	15.339
5.44	31.289
5.66	10.639
5.88	8.513
6.1	11.173
6.32	1.691
6.54	11.189
6.76	18.429
6.98	1.595
7.2	32.485
7.42	21.668
7.64	22.093
7.86	3.269
8.08	17.956
8.3	15.467
8.52	3.022
8.74	34.909
8.96	11.514
9.18	8.907
9.4	17.236
9.62	15.336
9.84	11.175
10.06	22.114
10.28	12.778
10.5	10.666
10.72	10.841
10.94	31.612
11.16	3.804
11.38	24.866
11.6	10.115
11.82	10.194
12.04	24.193
12.26	10.795
12.48	16.663
12.7	2.951
12.92	17.054
13.14	9.812
13.36	6.84
13.58	10.417
13.8	3.522
14.02	9.504
14.24	13.558
14.46	9.262
14.68	0.53
14.9	10.576
15.12	7.435
15.34	25.479
15.56	4.333
15.78	13.055
16	6.129
16.22	15.09
16.44	25.278
16.66	15.378
16.88	14.184
17.1	5.051
17.32	7.444
17.54	18.521
17.76	35.595
17.98	4.507
18.2	6.608
18.42	6.404
18.64	21.27
18.86	14.409
19.08	10.358
19.3	1.182
19.52	14.867
19.74	22.68
19.96	16.009
20.18	14.264
20.4	12.654
20.62	11.21
20.84	26.673
21.06	10.693
21.28	13.672
21.5	16.878
21.72	20.219
21.94	14.733
22.16	10.389
22.38	20.279
22.6	22.19
22.82	11.891
23.04	6.401
23.26	8.311
23.48	8.281
23.7	18.308
23.92	17.038
24.14	19.25
24.36	14.037
24.58	4.238
24.8	9.236
25.02	22.044
25.24	9.037
25.46	2.865
25.68	20.258
25.9	9.209
26.12	15.099
26.34	9.932
26.56	30.132
26.78	12.36
27	7.67
27.22	11.612
27.44	21.747
27.66	6.572
27.88	15.692
28.1	4.368
28.32	10.83
28.54	24.748
28.76	20.145
28.98	26.407
29.2	6.597
29.42	11.505
29.64	14.096
29.86	15.277
30.08	16.881
30.3	6.667
30.52	6.854
30.74	8.285
30.96	11.176
31.18	130.278
31.4	25.707
31.62	11.329
31.84	11.036
32.06	18.364
32.28	6.018
32.5	23.344
32.72	17.701
32.94	7.839
33.16	16.608
33.38	1.471
33.6	9.313
33.82	36.241
34.04	0.875
34.26	16.201
34.48	5.136
34.7	14.694
34.92	156.32
35.14	20.833
35.36	15.075
35.58	0.868
35.8	22.957
36.02	8.244
36.24	27.397
36.46	10.656
36.68	6.871
36.9	34.73
37.12	1.125
37.34	16.24
37.56	3.154
37.78	18.688
38	4.091
38.22	23.221
38.44	71.133
38.66	15.068
38.88	10.761
39.1	22.632
39.32	22.487
39.54	21.409
39.76	1.172
39.98	36.715
40.2	17.733
40.42	20.001
40.64	24.768
40.86	3.64
41.08	5.026
41.3	0.834
41.52	4.343
41.74	0.461
41.96	11.642
42.18	4.834
42.4	6.848
42.62	3.426
42.84	19.388
43.06	106.439
43.28	17.8
43.5	29.664
43.72	31.994
43.94	7.372
44.16	7.669
44.38	4.839
44.6	16.838
44.82	30.897
45.04	16.122
45.26	0.271
45.48	23.161
45.7	24.782
45.92	3.775
46.14	11.952
46.36	1.62
46.58	13.177
46.8	13.129
47.02	22.456
47.24	17.68
47.46	20.264
47.68	21.746
47.9	23.976
48.12	20.078
48.34	26.885
48.56	15.405
48.78	117.02
49	31.281
49.22	8.286
49.44	15.326
49.66	13.919
49.88	25.787
50.1	3.018
50.32	9.18
50.54	5.366
50.76	6.146
50.98	18.801
51.2	48.066
51.42	24.683
51.64	3.096
51.86	10.844
52.08	38.153
52.3	20.406
52.52	26.432
52.74	4.377
52.96	40.561
53.18	11.481
53.4	6.983
53.62	25.59
53.84	12.826
54.06	17.648
54.28	47.1
54.5	24.845
54.72	28.363
54.94	7.953
55.16	7.836
55.38	14.522
55.6	5.164
55.82	11.748
56.04	12.009
56.26	4.627
56.48	9.106
56.7	7.835
56.92	7.603
57.14	18.111
57.36	0.391
57.58	31.608
57.8	53.742
58.02	36.483
58.24	9.789
58.46	19.124
58.68	20.114
58.9	17.516
59.12	10.705
59.34	26.768
59.56	24.029
59.78	38.313
60	6.498
60.22	51.764
60.44	5.568
60.66	24.831
60.88	13.959
61.1	35
61.32	12.035
61.54	13.105
61.76	2.244
61.98	4.548
62.2	10.691
62.42	21.649
62.64	9.409
62.86	19.449
63.08	1.804
63.3	7.023
63.52	10.354
63.74	12.838
63.96	6.626
64.18	15.422
64.4	6.8
64.62	7.692
64.84	8.905
65.06	21.967
65.28	25.805
65.5	8.295
65.72	1.979
65.94	3.901
66.16	8.123
66.38	1.548
66.6	8.732
66.82	0.156
67.04	7.126
67.26	5.847
67.48	6.065
67.7	4.311
67.92	8.048
68.14	27.168
68.36	0.476
68.58	18.105
68.8	24.021
69.02	18.149
69.24	9.668
69.46	23.009
69.68	4.137
69.9	10.879
70.12	5.297
70.34	19.475
70.56	26.313
70.78	16.328
71	6.7
71.22	19.693
71.44	6.728
71.66	13.747
71.88	1.884
72.1	25.875
72.32	25.422
72.54	5.781
72.76	11.781
72.98	17.51
73.2	21.243
73.42	21.924
73.64	12.972
73.86	5.516
74.08	6.562
74.3	10.341
74.52	3.777
74.74	16.575
74.96	12.394
75.18	1.556
75.4	1.765
75.62	21.077
75.84	34.109
76.06	17.07
76.28	27.023
76.5	32.199
76.72	16.295
76.94	24.62
77.16	4.848
77.38	19.862
77.6	5.756
77.82	52.759
78.04	21.605
78.26	5.525
78.48	21.379
78.7	15.966
78.92	24.033
79.14	11.253
79.36	21.492
79.58	14.124
79.8	6.673
80.02	9.453
80.24	8.308
80.46	6.707
80.68	20.472
80.9	20.069
81.12	33.658
81.34	3.338
81.56	16.258
81.78	9.828
82	12.737
82.22	1.608
82.44	24.965
82.66	6.515
82.88	14.656
83.1	22.788
83.32	15.509
83.54	12.195
83.76	19.743
83.98	17.52
84.2	5.704
84.42	24.022
84.64	30.25
84.86	6.948
85.08	8.838
85.3	38.056
85.52	26.394
85.74	17.184
85.96	6.968
86.18	18.249
86.4	13.605
86.62	0.118
86.84	6.446
87.06	22.398
87.28	18.676
87.5	18.398
87.72	17.718
87.94	26.982
88.16	12.137
88.38	19.607
88.6	19.837
88.82	12.072
89.04	7.276
89.26	30.889
89.48	13.626
89.7	18.733
89.92	5.815
