Measurement: Powder, Xray Data XY Processed
Mineral: Andradite
Rruff sample: R060350
Ideal chemistry: Ca_3_Fe^3+^_2_(SiO_4_)_3_
Locality: south of the Gem mine, southern San Benito County, California, USA
Source: Michael Scott
Description: Cluster of black vitreous crystals showing well-developed faces
Diffraction sample description: Powder
Measured chemistry: (Ca_2.93_Mg_0.07_)_Σ=3_(Fe^3+^_1.18_Ti_0.77_Al_0.05_)_Σ=2_((Si_0.74_Fe^3+^_0.26_)_Σ=1_O_4_)_3_ ; trace amounts of Mn
Cell parameters: a: 12.1221(3) b: 12.1221(3) c: 12.1221(3) alpha: 90. beta: 90. gamma: 90. volume: 1781.2(1) crystal system: cubic
x	intensity
5	0
5.22	11.128
5.44	0.068
5.66	6.947
5.88	5.762
6.1	14.042
6.32	8.29
6.54	23.231
6.76	12.448
6.98	14.947
7.2	7.014
7.42	13.892
7.64	7.979
7.86	17.752
8.08	11.154
8.3	4.017
8.52	9.574
8.74	3.983
8.96	8.602
9.18	10.308
9.4	11.814
9.62	4.173
9.84	15.566
10.06	11.284
10.28	0.338
10.5	9.701
10.72	5.58
10.94	7.492
11.16	8.102
11.38	6.867
11.6	12.905
11.82	14.811
12.04	15.233
12.26	3.377
12.48	17.428
12.7	7.451
12.92	15.72
13.14	10.303
13.36	9.589
13.58	10.729
13.8	10.007
14.02	6.358
14.24	1.474
14.46	11.766
14.68	8.725
14.9	16.189
15.12	15.194
15.34	17.639
15.56	2.576
15.78	14.358
16	10.117
16.22	4.403
16.44	10.656
16.66	9.734
16.88	7.648
17.1	12.973
17.32	10.976
17.54	4.126
17.76	10.5
17.98	11.746
18.2	19.565
18.42	8.543
18.64	0.939
18.86	17.573
19.08	6.771
19.3	3.826
19.52	6.293
19.74	10.595
19.96	16.553
20.18	1.967
20.4	11.531
20.62	7.393
20.84	25.068
21.06	16.933
21.28	3.792
21.5	23.792
21.72	17.035
21.94	4.067
22.16	8.506
22.38	11.346
22.6	9.534
22.82	8.543
23.04	14.827
23.26	4.365
23.48	12.413
23.7	6.168
23.92	8.548
24.14	7.505
24.36	5.92
24.58	9.059
24.8	12.044
25.02	15.99
25.24	5.315
25.46	15.406
25.68	12.181
25.9	6.198
26.12	7.222
26.34	1.51
26.56	17.635
26.78	18.388
27	8.095
27.22	2.04
27.44	12.151
27.66	11.69
27.88	6.423
28.1	5.841
28.32	10.44
28.54	5.846
28.76	6.299
28.98	4.756
29.2	20.173
29.42	27.892
29.64	45.695
29.86	8.34
30.08	8.906
30.3	4.653
30.52	2.321
30.74	5.505
30.96	6.812
31.18	6.95
31.4	20.25
31.62	10.179
31.84	1.074
32.06	15.828
32.28	6.774
32.5	0.967
32.72	11.784
32.94	17.748
33.16	209.589
33.38	12.646
33.6	8.701
33.82	9.56
34.04	9.964
34.26	6.071
34.48	8.465
34.7	26.687
34.92	20.794
35.14	19.712
35.36	11.898
35.58	9.512
35.8	2.263
36.02	16.625
36.24	26.785
36.46	77.575
36.68	6.777
36.9	2.396
37.12	1.52
37.34	3.724
37.56	12.534
37.78	10.281
38	34.568
38.22	6.643
38.44	14.892
38.66	4.655
38.88	2.525
39.1	8.375
39.32	5.337
39.54	8.252
39.76	10.178
39.98	12.572
40.2	8.146
40.42	15.134
40.64	8.308
40.86	22.442
41.08	12.872
41.3	2.209
41.52	1.665
41.74	0.407
41.96	6.695
42.18	6.104
42.4	10.302
42.62	18.43
42.84	0.44
43.06	14.372
43.28	16.397
43.5	4.427
43.72	8.394
43.94	7.595
44.16	1.17
44.38	9.126
44.6	20.099
44.82	5.062
45.04	21.837
45.26	17.746
45.48	8.98
45.7	2.968
45.92	13.004
46.14	72.913
46.36	28.78
46.58	12.764
46.8	21.669
47.02	11.516
47.24	15.781
47.46	32.053
47.68	12.362
47.9	12.287
48.12	8.373
48.34	10.2
48.56	3.008
48.78	3.308
49	5.445
49.22	11.406
49.44	5.359
49.66	14.168
49.88	22.324
50.1	5.929
50.32	2.817
50.54	9.667
50.76	9.737
50.98	6.716
51.2	9.404
51.42	24.225
51.64	0.254
51.86	9.803
52.08	8.64
52.3	11.344
52.52	7.619
52.74	17.512
52.96	0.737
53.18	11.486
53.4	5.473
53.62	10.33
53.84	5.166
54.06	17.113
54.28	5.958
54.5	20.606
54.72	50.334
54.94	11.196
55.16	4.037
55.38	11.793
55.6	11.709
55.82	1.54
56.04	2.424
56.26	14.599
56.48	11.342
56.7	22.5
56.92	83.452
57.14	26.785
57.36	3.781
57.58	4.116
57.8	5.171
58.02	2.077
58.24	11.535
58.46	4.844
58.68	11.224
58.9	7.51
59.12	12.321
59.34	3.629
59.56	10.404
59.78	13.274
60	5.099
60.22	16.061
60.44	17.393
60.66	18.549
60.88	23.61
61.1	28.511
61.32	21.87
61.54	0.047
61.76	9.585
61.98	12.673
62.2	16.989
62.42	8.046
62.64	5.186
62.86	25.472
63.08	8.925
63.3	11.897
63.52	4.913
63.74	13.839
63.96	14.884
64.18	12.552
64.4	10.376
64.62	1.106
64.84	4.997
65.06	9.09
65.28	22.038
65.5	20.99
65.72	16.203
65.94	6.27
66.16	13.316
66.38	8.032
66.6	15.168
66.82	10.203
67.04	4.535
67.26	8.748
67.48	8.827
67.7	9.761
67.92	7.749
68.14	10.469
68.36	16.947
68.58	7.754
68.8	2.338
69.02	14.095
69.24	17.823
69.46	17.771
69.68	31.664
69.9	2.474
70.12	16.152
70.34	10.075
70.56	0.736
70.78	3.552
71	13.121
71.22	34.343
71.44	19.458
71.66	3.063
71.88	19.023
72.1	9.632
72.32	4.35
72.54	3.623
72.76	9.309
72.98	7.084
73.2	29.46
73.42	14.46
73.64	0.277
73.86	6.431
74.08	6.641
74.3	12.044
74.52	14.305
74.74	4.773
74.96	10.318
75.18	4.844
75.4	21.69
75.62	5.006
75.84	10.884
76.06	9.877
76.28	6.007
76.5	15.859
76.72	7.068
76.94	1.85
77.16	22.517
77.38	12.439
77.6	0.442
77.82	13.896
78.04	17.658
78.26	13.921
78.48	1.832
78.7	23.201
78.92	10.139
79.14	0.383
79.36	11.593
79.58	6.037
79.8	6.007
80.02	7.832
80.24	5.799
80.46	6.929
80.68	8.799
80.9	10.721
81.12	9.879
81.34	6.715
81.56	7.522
81.78	16.192
82	10.061
82.22	8.255
82.44	2.371
82.66	4.43
82.88	28.337
83.1	9.531
83.32	19.34
83.54	12.188
83.76	3.799
83.98	17.977
84.2	7.329
84.42	13.126
84.64	22.238
84.86	0.011
85.08	8.766
85.3	4.592
85.52	10.086
85.74	8.978
85.96	4.664
86.18	3.682
86.4	26.061
86.62	17.756
86.84	6.046
87.06	4.447
87.28	11.564
87.5	9.762
87.72	13.02
87.94	2.647
88.16	9.085
88.38	2.434
88.6	14.635
88.82	15.522
89.04	10.623
89.26	3.141
89.48	12.698
89.7	8.061
89.92	3.162
