Measurement: Powder, Xray Data XY Processed
Mineral: Andradite
Rruff sample: R060358
Ideal chemistry: Ca_3_Fe^3+^_2_(SiO_4_)_3_
Locality: Soghan, near Jiroft, Kerman, Iran
Source: Herb Obodda
Description: Green dodecahedron
Diffraction sample description: Powder
Measured chemistry: Ca_3.00_(Fe^3+^_1.89_Cr_0.11_)_Î£=2_(Si_1.00_O_4_)_3_
Cell parameters: a: 12.0587(2) b: 12.0587(2) c: 12.0587(2) alpha: 90. beta: 90. gamma: 90. volume: 1753.49(10) crystal system: cubic
x	intensity
5	0
5.22	14.259
5.44	7.777
5.66	8.688
5.88	22.289
6.1	12.262
6.32	1.632
6.54	6.325
6.76	27.249
6.98	20.956
7.2	12.884
7.42	22.989
7.64	20.698
7.86	11.092
8.08	18.526
8.3	7.551
8.52	11.468
8.74	25.493
8.96	11.217
9.18	3.784
9.4	17.209
9.62	5.921
9.84	8.614
10.06	5.382
10.28	5.016
10.5	14.402
10.72	10.052
10.94	16.78
11.16	4.459
11.38	14.381
11.6	6.303
11.82	25.265
12.04	6.874
12.26	1.813
12.48	18.362
12.7	11.064
12.92	9.917
13.14	7.272
13.36	6.457
13.58	10.513
13.8	2.514
14.02	9.004
14.24	5.324
14.46	17.104
14.68	10.285
14.9	4.584
15.12	19.899
15.34	17.088
15.56	13.688
15.78	22.81
16	17.071
16.22	12.02
16.44	20.754
16.66	9.387
16.88	3.304
17.1	9.137
17.32	15.635
17.54	7.902
17.76	0.202
17.98	13.726
18.2	18.57
18.42	11.119
18.64	8.196
18.86	10.941
19.08	4.907
19.3	10.016
19.52	3.855
19.74	6.62
19.96	4.709
20.18	4.561
20.4	24.353
20.62	15.107
20.84	58.151
21.06	14.159
21.28	13.183
21.5	0.471
21.72	16.41
21.94	8.993
22.16	0.225
22.38	13.62
22.6	3.775
22.82	20.017
23.04	6.183
23.26	5.805
23.48	0.849
23.7	0.57
23.92	12.17
24.14	17.398
24.36	5.896
24.58	9.658
24.8	1.588
25.02	16.212
25.24	21.54
25.46	16.648
25.68	17.537
25.9	2.684
26.12	14.065
26.34	16.685
26.56	25.584
26.78	12.297
27	11.426
27.22	7.391
27.44	7.356
27.66	14.908
27.88	19.339
28.1	14.16
28.32	15.173
28.54	3.862
28.76	12.26
28.98	8.102
29.2	7.768
29.42	20.363
29.64	228.583
29.86	12.449
30.08	4.89
30.3	22.094
30.52	14.658
30.74	12.907
30.96	3.191
31.18	19.052
31.4	13.39
31.62	15.735
31.84	3.245
32.06	16.64
32.28	14.228
32.5	7.227
32.72	11.57
32.94	13.158
33.16	49.826
33.38	58.323
33.6	13.547
33.82	7.923
34.04	14.892
34.26	10.868
34.48	4.676
34.7	9.952
34.92	37.191
35.14	10.203
35.36	7.936
35.58	5.819
35.8	17.166
36.02	4.181
36.24	18.322
36.46	63.35
36.68	40.75
36.9	6.738
37.12	2.424
37.34	8.268
37.56	6.642
37.78	14.752
38	22.138
38.22	22.916
38.44	3.034
38.66	16.92
38.88	8.822
39.1	10.894
39.32	9.747
39.54	12.813
39.76	7.683
39.98	5.601
40.2	5.681
40.42	11.6
40.64	7.053
40.86	10.716
41.08	39.904
41.3	14.136
41.52	18.156
41.74	11.171
41.96	18.734
42.18	5.99
42.4	6.078
42.62	15.797
42.84	7.631
43.06	0.256
43.28	3.811
43.5	23.569
43.72	11.718
43.94	1.623
44.16	0.821
44.38	15.559
44.6	10.489
44.82	0.687
45.04	0.345
45.26	27.162
45.48	10.792
45.7	3.014
45.92	3.826
46.14	0.41
46.36	20.903
46.58	14.267
46.8	2.703
47.02	10.564
47.24	13.366
47.46	10.631
47.68	32.758
47.9	30.131
48.12	22.612
48.34	10.761
48.56	3.924
48.78	3.88
49	1.1
49.22	2.036
49.44	10.232
49.66	9.654
49.88	8.698
50.1	6.894
50.32	1.593
50.54	23.124
50.76	11.196
50.98	0.94
51.2	17.868
51.42	10.704
51.64	13.316
51.86	10.42
52.08	4.013
52.3	16.484
52.52	8.218
52.74	26.663
52.96	1.339
53.18	9.693
53.4	6.552
53.62	14.243
53.84	10.007
54.06	11.946
54.28	8.49
54.5	1.143
54.72	21.307
54.94	53.984
55.16	15.263
55.38	4.869
55.6	15.045
55.82	0.063
56.04	0.057
56.26	14.008
56.48	11.858
56.7	8.766
56.92	21.062
57.14	180.414
57.36	48.703
57.58	6.959
57.8	8.441
58.02	16.56
58.24	13.777
58.46	15.975
58.68	12.12
58.9	12.753
59.12	12.777
59.34	1.743
59.56	16.268
59.78	14.657
60	28.53
60.22	13.187
60.44	10.134
60.66	10.937
60.88	14.2
61.1	8.128
61.32	14.224
61.54	18.212
61.76	14.343
61.98	19.827
62.2	10.134
62.42	12.366
62.64	10.48
62.86	2.714
63.08	15.111
63.3	8.947
63.52	24.078
63.74	16.416
63.96	3.689
64.18	17.147
64.4	11.47
64.62	20.779
64.84	29.749
65.06	25.696
65.28	1.498
65.5	19.388
65.72	17.381
65.94	9.338
66.16	18.121
66.38	9.56
66.6	6.014
66.82	7.213
67.04	8.73
67.26	10.884
67.48	6.831
67.7	7.791
67.92	7.418
68.14	15.05
68.36	15.742
68.58	5.37
68.8	7.327
69.02	21.139
69.24	13.368
69.46	15.148
69.68	38.652
69.9	26.777
70.12	13.235
70.34	22.669
70.56	1.332
70.78	10.455
71	6.696
71.22	7.709
71.44	13.944
71.66	15.935
71.88	22.94
72.1	18.432
72.32	4.772
72.54	17.194
72.76	19.639
72.98	6.535
73.2	15.418
73.42	4.211
73.64	27.283
73.86	24.424
74.08	8.058
74.3	13.915
74.52	9.245
74.74	14.149
74.96	3.678
75.18	18.733
75.4	13.215
75.62	8.506
75.84	13.603
76.06	3.709
76.28	6.772
76.5	0.207
76.72	13.923
76.94	10.163
77.16	21.82
77.38	9.733
77.6	3.578
77.82	8.063
78.04	11.819
78.26	2.445
78.48	16.453
78.7	6.069
78.92	11.715
79.14	8.821
79.36	7.872
79.58	26.153
79.8	16.549
80.02	11.823
80.24	6.806
80.46	5.041
80.68	12.538
80.9	4.821
81.12	17.828
81.34	17.827
81.56	13.841
81.78	18.636
82	8.482
82.22	5.224
82.44	10.225
82.66	7.792
82.88	14.658
83.1	13.971
83.32	11.104
83.54	18.647
83.76	5.862
83.98	13.668
84.2	13.744
84.42	17.929
84.64	4.761
84.86	5.587
85.08	0.069
85.3	10.802
85.52	4.969
85.74	10.477
85.96	7.811
86.18	11.311
86.4	4.952
86.62	24.627
86.84	20.663
87.06	23.768
87.28	21.399
87.5	4.884
87.72	18.77
87.94	4.606
88.16	7.286
88.38	10.802
88.6	10.206
88.82	25.635
89.04	30.438
89.26	2.366
89.48	8.275
89.7	24.696
89.92	34.728
