Measurement: Powder, Xray Data XY Processed
Mineral: Andradite
Rruff sample: R040001
Ideal chemistry: Ca_3_Fe^3+^_2_(SiO_4_)_3_
Locality: Stanley Butte, Graham County, Arizona, USA
Source: University of Arizona Mineral Museum
Description: Brownish-orange dodecahedra
Diffraction sample description: Powder
Measured chemistry: Ca_3.00_(Fe_1.96_Al_0.04_)_Î£=2_(SiO_4_)_3_ ; trace amounts of Mn
Cell parameters: a: 12.0630(2) b: 12.0630(2) c: 12.0630(2) alpha: 90. beta: 90. gamma: 90. volume: 1755.36(9) crystal system: cubic
x	intensity
5	0
5.22	18.314
5.44	10.547
5.66	18.757
5.88	28.735
6.1	34.881
6.32	14.894
6.54	5.944
6.76	27.19
6.98	4.246
7.2	6.805
7.42	3.559
7.64	15.052
7.86	8.788
8.08	11.123
8.3	29.954
8.52	23.2
8.74	24.519
8.96	1.499
9.18	12.686
9.4	5.474
9.62	20.142
9.84	25.26
10.06	20.513
10.28	9.802
10.5	12.113
10.72	4.925
10.94	9.06
11.16	10.581
11.38	2.97
11.6	4.027
11.82	4.874
12.04	10.827
12.26	20.784
12.48	0.763
12.7	0.491
12.92	10.548
13.14	14.352
13.36	8.509
13.58	9.347
13.8	24.853
14.02	17.189
14.24	12.524
14.46	23.828
14.68	14.971
14.9	17.686
15.12	4.078
15.34	31.598
15.56	16.521
15.78	23.614
16	44.08
16.22	20.851
16.44	7.456
16.66	22.205
16.88	0.841
17.1	5.93
17.32	11.549
17.54	24.248
17.76	23.832
17.98	28.693
18.2	14.473
18.42	18.702
18.64	14.328
18.86	23.093
19.08	5.944
19.3	18.049
19.52	15.688
19.74	31.829
19.96	32.971
20.18	26.494
20.4	8.25
20.62	14.253
20.84	158.534
21.06	23.946
21.28	20.229
21.5	8.433
21.72	3.2
21.94	3.197
22.16	14.845
22.38	14.917
22.6	20.645
22.82	17.004
23.04	15.925
23.26	32.783
23.48	30.673
23.7	9.068
23.92	14.038
24.14	18.745
24.36	6.58
24.58	21.747
24.8	1.277
25.02	32.146
25.24	9.507
25.46	10.503
25.68	20.473
25.9	20.727
26.12	3.909
26.34	34.868
26.56	6.237
26.78	28.561
27	14.764
27.22	8.722
27.44	8.016
27.66	23.778
27.88	18.599
28.1	19.066
28.32	14.966
28.54	6.822
28.76	12.985
28.98	39.659
29.2	14.972
29.42	0.822
29.64	482.547
29.86	73.079
30.08	23.92
30.3	11.321
30.52	9.316
30.74	32.543
30.96	1.051
31.18	6.841
31.4	15.513
31.62	14.056
31.84	20.515
32.06	9.943
32.28	22.246
32.5	21.238
32.72	33.013
32.94	16.385
33.16	110.457
33.38	166.128
33.6	23.125
33.82	11.181
34.04	11.266
34.26	2.738
34.48	9.205
34.7	22.389
34.92	35.533
35.14	27.781
35.36	6.689
35.58	24.861
35.8	14.532
36.02	12.165
36.24	26.057
36.46	147.657
36.68	53.23
36.9	8.526
37.12	7.317
37.34	1.529
37.56	24.669
37.78	12.655
38	19.432
38.22	28.345
38.44	6.943
38.66	30.405
38.88	16.049
39.1	25.485
39.32	15.724
39.54	43.249
39.76	15.436
39.98	12.487
40.2	13.86
40.42	0.868
40.64	11.779
40.86	35.602
41.08	36.622
41.3	29.463
41.52	9.424
41.74	18.694
41.96	9.936
42.18	3.89
42.4	24.211
42.62	28.688
42.84	24.534
43.06	2.942
43.28	1.634
43.5	35
43.72	21.044
43.94	10.21
44.16	15.081
44.38	16.626
44.6	25.445
44.82	8.284
45.04	35.207
45.26	9.032
45.48	14.23
45.7	27.242
45.92	31.52
46.14	21.385
46.36	56.081
46.58	52.52
46.8	17.439
47.02	9.005
47.24	13.648
47.46	1.954
47.68	68.033
47.9	16.526
48.12	38.988
48.34	11.868
48.56	2.888
48.78	1.72
49	15.316
49.22	6.993
49.44	5.351
49.66	3.504
49.88	14.916
50.1	11.218
50.32	30.844
50.54	31.406
50.76	24.789
50.98	24.284
51.2	22.413
51.42	27.444
51.64	17.301
51.86	41.051
52.08	23.948
52.3	23.485
52.52	31.38
52.74	39.148
52.96	34.683
53.18	7.744
53.4	5.442
53.62	23.871
53.84	18.354
54.06	25.785
54.28	23.282
54.5	5.513
54.72	29.091
54.94	67.745
55.16	36.195
55.38	25.478
55.6	0.861
55.82	17.443
56.04	6.401
56.26	6.264
56.48	15.222
56.7	2.186
56.92	38.453
57.14	455.877
57.36	99.91
57.58	36.401
57.8	7.656
58.02	16.637
58.24	28.456
58.46	22.213
58.68	2.961
58.9	9.604
59.12	15.868
59.34	12.122
59.56	12.571
59.78	23.032
60	29.661
60.22	4.63
60.44	5.772
60.66	4.562
60.88	3.836
61.1	6.235
61.32	8.242
61.54	27.115
61.76	16.307
61.98	23.791
62.2	27.568
62.42	10.032
62.64	37.514
62.86	19.405
63.08	12.195
63.3	8.769
63.52	35.3
63.74	13.536
63.96	10.82
64.18	11.479
64.4	10.572
64.62	12.209
64.84	26.336
65.06	24.538
65.28	15.518
65.5	33.14
65.72	20.275
65.94	34.994
66.16	26.516
66.38	11.712
66.6	11.297
66.82	10.373
67.04	19.757
67.26	27.736
67.48	14.036
67.7	23.267
67.92	7.097
68.14	1.117
68.36	6.732
68.58	22.567
68.8	13.029
69.02	16.753
69.24	16.331
69.46	17.291
69.68	116.987
69.9	41.551
70.12	13.468
70.34	13.641
70.56	19.104
70.78	2.093
71	1.598
71.22	2.469
71.44	12.452
71.66	80.174
71.88	42.742
72.1	3.268
72.32	9.416
72.54	2.304
72.76	3.894
72.98	0.05
73.2	7.768
73.42	24.015
73.64	63.113
73.86	20.199
74.08	43.094
74.3	0.247
74.52	30.67
74.74	23.487
74.96	11.187
75.18	13.613
75.4	17.208
75.62	8.43
75.84	19.673
76.06	20.983
76.28	30.095
76.5	11.744
76.72	17.127
76.94	19.795
77.16	19.024
77.38	16.678
77.6	6.724
77.82	20.406
78.04	19.168
78.26	20.633
78.48	17.851
78.7	32.106
78.92	23.699
79.14	4.355
79.36	9.131
79.58	6.693
79.8	6.691
80.02	33.706
80.24	4.28
80.46	28.448
80.68	32.15
80.9	5.98
81.12	17.745
81.34	37.803
81.56	33.067
81.78	14.906
82	18.084
82.22	13.182
82.44	23.126
82.66	24.633
82.88	37.442
83.1	29.039
83.32	31.36
83.54	19.482
83.76	3.836
83.98	2.808
84.2	14.748
84.42	24.749
84.64	11.756
84.86	9.438
85.08	2.618
85.3	4.144
85.52	12.5
85.74	31.209
85.96	12.086
86.18	1.679
86.4	1.123
86.62	21.645
86.84	23.834
87.06	34.4
87.28	58.663
87.5	32.496
87.72	12.115
87.94	26.057
88.16	26.955
88.38	16.894
88.6	4.161
88.82	88.339
89.04	44.227
89.26	9.738
89.48	5.374
89.7	23.989
89.92	10.302
