Measurement: Powder, Xray Data XY Processed
Mineral: Anorthite
Rruff sample: R060193
Ideal chemistry: CaAl_2_Si_2_O_8_
Locality: Mexico
Source: Bill Barker
Description: Tan colored translucent fragment
Diffraction sample description: Powder
Measured chemistry: (Ca_0.58_Na_0.39_K_0.02_)Al_1.60_Si_2.40_O_8_
Cell parameters: a: 8.1809(5) b: 12.881(1) c: 7.1101(3) alpha: 93.465(7) beta: 116.110(7) gamma: 90.369(6) volume: 671.10(5) crystal system: triclinic
x	intensity
5	0
5.22	15.227
5.44	11.873
5.66	8.921
5.88	10.362
6.1	11.112
6.32	12.902
6.54	12.594
6.76	7.659
6.98	6.601
7.2	7.604
7.42	6.993
7.64	7.014
7.86	0.933
8.08	3.198
8.3	0.056
8.52	3.798
8.74	7.508
8.96	0.23
9.18	6.788
9.4	5.141
9.62	7.332
9.84	3.414
10.06	0.251
10.28	5.844
10.5	5.928
10.72	3.081
10.94	7.216
11.16	0.354
11.38	8.344
11.6	5.474
11.82	6.771
12.04	5.295
12.26	7.546
12.48	5.86
12.7	1.043
12.92	3.082
13.14	7.555
13.36	2.723
13.58	7.825
13.8	16.749
14.02	11.762
14.24	2.29
14.46	4.344
14.68	4.143
14.9	8.978
15.12	4.075
15.34	6.096
15.56	4.818
15.78	5.69
16	4.718
16.22	5.62
16.44	9.652
16.66	3.745
16.88	7.752
17.1	13.923
17.32	4.17
17.54	3
17.76	9.962
17.98	6.839
18.2	4.913
18.42	7.818
18.64	5.775
18.86	2.685
19.08	12.731
19.3	7.719
19.52	5.715
19.74	3.509
19.96	1.465
20.18	9.608
20.4	5.572
20.62	1.452
20.84	2.285
21.06	5.119
21.28	2.139
21.5	10.908
21.72	3.732
21.94	17.323
22.16	22.329
22.38	0.507
22.6	2.101
22.82	24.733
23.04	8.844
23.26	1.283
23.48	0.55
23.7	96.358
23.92	2.986
24.14	1.396
24.36	2.299
24.58	52.861
24.8	6.491
25.02	0.436
25.24	4.079
25.46	9.576
25.68	35.036
25.9	1.501
26.12	8.465
26.34	0.311
26.56	28.636
26.78	1.517
27	1.284
27.22	1.982
27.44	4.666
27.66	64.197
27.88	193.391
28.1	260.121
28.32	16.849
28.54	63.918
28.76	5.218
28.98	0.759
29.2	1.009
29.42	0.726
29.64	30.532
29.86	2.822
30.08	5.733
30.3	45.694
30.52	33.551
30.74	23.417
30.96	3.753
31.18	5.15
31.4	7.854
31.62	20.188
31.84	17.662
32.06	8.926
32.28	5.506
32.5	4.118
32.72	10.345
32.94	6.548
33.16	7.802
33.38	1.089
33.6	10.065
33.82	21.249
34.04	6.125
34.26	2.831
34.48	11.549
34.7	2.143
34.92	6.082
35.14	18.147
35.36	16.219
35.58	24.973
35.8	44.507
36.02	5.461
36.24	10.06
36.46	1.11
36.68	2.018
36.9	7.961
37.12	9.997
37.34	4.154
37.56	3.122
37.78	13.259
38	13.347
38.22	3.561
38.44	2.799
38.66	1.972
38.88	4.071
39.1	11.414
39.32	4.827
39.54	3.158
39.76	7.096
39.98	0.103
40.2	2.14
40.42	8.165
40.64	17.972
40.86	0.772
41.08	4.548
41.3	14.273
41.52	1.846
41.74	6.429
41.96	11.023
42.18	0.725
42.4	9.257
42.62	9.338
42.84	10.437
43.06	27.416
43.28	14.609
43.5	20.716
43.72	2.004
43.94	6.111
44.16	3.216
44.38	7.195
44.6	2.232
44.82	7.551
45.04	10.408
45.26	6.202
45.48	5.07
45.7	11.037
45.92	4.203
46.14	6.259
46.36	3.543
46.58	5.667
46.8	13.006
47.02	5.197
47.24	18.991
47.46	2.063
47.68	5.915
47.9	8.16
48.12	6.986
48.34	0.608
48.56	15.566
48.78	2.215
49	1.091
49.22	10.689
49.44	9.772
49.66	13.789
49.88	15.728
50.1	3.798
50.32	7.406
50.54	8.295
50.76	24.358
50.98	13.429
51.2	0.293
51.42	0.006
51.64	5.902
51.86	10.522
52.08	10.472
52.3	5.395
52.52	2.263
52.74	12.541
52.96	1.148
53.18	2.117
53.4	11.292
53.62	11.812
53.84	2.422
54.06	0.162
54.28	3.468
54.5	7.601
54.72	7.884
54.94	5.299
55.16	1.328
55.38	2.959
55.6	11.897
55.82	3.895
56.04	6.68
56.26	8.261
56.48	9.68
56.7	2.496
56.92	12.445
57.14	9.445
57.36	2.091
57.58	17.006
57.8	12.29
58.02	5.529
58.24	11.533
58.46	5.673
58.68	2.114
58.9	14.285
59.12	6.383
59.34	8.433
59.56	4.471
59.78	3.766
60	9.851
60.22	10.614
60.44	7.424
60.66	3.639
60.88	1.811
61.1	8.388
61.32	7.236
61.54	1.127
61.76	7.859
61.98	0.286
62.2	1.283
62.42	3.086
62.64	7.32
62.86	2.183
63.08	1.952
63.3	4.627
63.52	9.726
63.74	1.005
63.96	6.289
64.18	6.529
64.4	3.762
64.62	9.286
64.84	8.36
65.06	0.096
65.28	3.031
65.5	5.769
65.72	4.359
65.94	9.585
66.16	10.191
66.38	0.711
66.6	6.117
66.82	6.055
67.04	7.366
67.26	0.12
67.48	11.855
67.7	8.145
67.92	6.107
68.14	6.278
68.36	10.058
68.58	9.235
68.8	10.464
69.02	2.737
69.24	2.867
69.46	1.346
69.68	14.016
69.9	3.45
70.12	6.429
70.34	5.632
70.56	6.839
70.78	2.362
71	7.81
71.22	1.947
71.44	7.153
71.66	3.29
71.88	0.328
72.1	6.977
72.32	4.005
72.54	1.262
72.76	5.218
72.98	1.909
73.2	7.716
73.42	3.376
73.64	4.228
73.86	5.069
74.08	1.924
74.3	7.684
74.52	5.813
74.74	2.76
74.96	5.426
75.18	6.737
75.4	2.888
75.62	1.94
75.84	2.154
76.06	6.222
76.28	4.239
76.5	4.375
76.72	4.483
76.94	12.423
77.16	8.342
77.38	3.482
77.6	3.07
77.82	0.848
78.04	3.317
78.26	4.507
78.48	4.622
78.7	8.87
78.92	8.12
79.14	8.158
79.36	9.433
79.58	5.52
79.8	4.649
80.02	2.696
80.24	4.498
80.46	5.473
80.68	1.392
80.9	6.415
81.12	2.309
81.34	7.98
81.56	3.931
81.78	1.795
82	1.136
82.22	5.975
82.44	11.961
82.66	1.925
82.88	3.08
83.1	9.097
83.32	0.235
83.54	11.13
83.76	4.216
83.98	5.293
84.2	2.238
84.42	0.055
84.64	8.161
84.86	4.181
85.08	5.083
85.3	2.04
85.52	6.108
85.74	0.127
85.96	7.425
86.18	3.424
86.4	6.397
86.62	12.46
86.84	0.572
87.06	2.359
87.28	0.498
87.5	5.521
87.72	1.466
87.94	5.593
88.16	0.559
88.38	0.659
88.6	4.648
88.82	0.762
89.04	7.837
89.26	2.963
89.48	7.354
89.7	6.766
89.92	9.605
