Measurement: Powder, Xray Data XY Processed
Mineral: Axinite-(Fe)
Rruff sample: R040074
Ideal chemistry: Ca_4_Fe^2+^_2_Al_4_[B_2_Si_8_O_30_](OH)_2_
Locality: Luning, Nevada, USA
Source: University of Arizona Mineral Museum
Description: Pale brown wedge-shaped crystal
Diffraction sample description: Powder
Measured chemistry: (Ca_0.98_Mn_0.01_)_2_(Fe_0.41_Mg_0.39_Mn_0.20_)Al_1.95_B_1.20_Si_3.90_O_15_(OH)
Cell parameters: a: 7.1484(6) b: 9.1820(7) c: 8.964(2) alpha: 91.92(1) beta: 98.21(1) gamma: 77.344(9) volume: 568.1(1) crystal system: triclinic
x	intensity
5	0
5.22	5.361
5.44	6.08
5.66	21.84
5.88	24.506
6.1	17.422
6.32	12.074
6.54	11.397
6.76	34.991
6.98	5.286
7.2	27.241
7.42	23.616
7.64	14.418
7.86	7.49
8.08	7.388
8.3	16.245
8.52	6.086
8.74	29
8.96	19.484
9.18	16.021
9.4	12.692
9.62	2.593
9.84	12.777
10.06	12.945
10.28	22.35
10.5	8.538
10.72	7.545
10.94	6.591
11.16	7.322
11.38	16.522
11.6	0.6
11.82	15.544
12.04	6.726
12.26	9.765
12.48	10.556
12.7	20.27
12.92	9.283
13.14	15.683
13.36	15.018
13.58	0.017
13.8	14.013
14.02	28.941
14.24	5.982
14.46	6.64
14.68	15.497
14.9	10.653
15.12	25.746
15.34	10.749
15.56	15.964
15.78	15.53
16	2.067
16.22	16.597
16.44	9.77
16.66	8.438
16.88	10.689
17.1	16.83
17.32	19.274
17.54	31.483
17.76	20.844
17.98	18.474
18.2	12.231
18.42	14.809
18.64	11.287
18.86	3.533
19.08	17.207
19.3	15.154
19.52	10.12
19.74	14.124
19.96	0.104
20.18	10.908
20.4	13.128
20.62	3.324
20.84	15.726
21.06	7.897
21.28	4.707
21.5	4.79
21.72	10.151
21.94	16.266
22.16	17.829
22.38	27.591
22.6	10.58
22.82	10.266
23.04	13.156
23.26	13.737
23.48	1.412
23.7	10.351
23.92	6.473
24.14	11.456
24.36	17.018
24.58	14.919
24.8	4.83
25.02	14.56
25.24	7.077
25.46	4.824
25.68	29.927
25.9	164.756
26.12	20.244
26.34	14.351
26.56	0.376
26.78	0.562
27	16.146
27.22	55.982
27.44	3.118
27.66	7.108
27.88	7.746
28.1	12.783
28.32	78.167
28.54	25.184
28.76	8.149
28.98	8.704
29.2	11.166
29.42	1.417
29.64	18.489
29.86	39.106
30.08	61.994
30.3	36.037
30.52	9.592
30.74	2.953
30.96	32.539
31.18	0.48
31.4	5.616
31.62	45.581
31.84	14.233
32.06	167.174
32.28	34.608
32.5	40.631
32.72	9.59
32.94	5.53
33.16	4.41
33.38	2.047
33.6	15.539
33.82	22.299
34.04	20.79
34.26	2.959
34.48	0.361
34.7	20.391
34.92	74.784
35.14	23.418
35.36	13.026
35.58	2.929
35.8	16.773
36.02	1.026
36.24	39.675
36.46	11.547
36.68	6.407
36.9	67.638
37.12	9.452
37.34	26.542
37.56	9.084
37.78	1.547
38	8.182
38.22	43.075
38.44	4.298
38.66	9.632
38.88	14.687
39.1	18.72
39.32	3.222
39.54	16.396
39.76	9.615
39.98	13.768
40.2	18.121
40.42	8.325
40.64	3.814
40.86	16.207
41.08	24.282
41.3	33.715
41.52	14.787
41.74	21.457
41.96	27.011
42.18	4.071
42.4	5.886
42.62	11.14
42.84	6.783
43.06	3.593
43.28	3.125
43.5	7.839
43.72	6.891
43.94	3.64
44.16	20.272
44.38	14.786
44.6	36.687
44.82	20.985
45.04	11.76
45.26	16.48
45.48	64.377
45.7	30.886
45.92	3.489
46.14	13.386
46.36	13.656
46.58	16.327
46.8	7.895
47.02	5.682
47.24	17.196
47.46	9.101
47.68	14.582
47.9	0.553
48.12	10.998
48.34	26.599
48.56	1.618
48.78	3.465
49	0.392
49.22	4.907
49.44	8.772
49.66	5.542
49.88	12.594
50.1	19.201
50.32	3.321
50.54	10.52
50.76	10.747
50.98	6.411
51.2	15.388
51.42	15.87
51.64	5.659
51.86	10.253
52.08	6.095
52.3	9.634
52.52	11.148
52.74	21.323
52.96	7.856
53.18	9.533
53.4	18.163
53.62	11.209
53.84	11.414
54.06	24.369
54.28	0.255
54.5	7.935
54.72	5.728
54.94	2.117
55.16	11.995
55.38	8.394
55.6	0.149
55.82	25.029
56.04	18.723
56.26	13.492
56.48	24.547
56.7	16.657
56.92	12.092
57.14	4.794
57.36	7.971
57.58	10.935
57.8	17.091
58.02	33.991
58.24	2.487
58.46	16.969
58.68	35.52
58.9	18.899
59.12	8.797
59.34	17.881
59.56	0.457
59.78	1.625
60	21.918
60.22	8.88
60.44	20.266
60.66	18.609
60.88	13.727
61.1	8.093
61.32	28.454
61.54	8.208
61.76	21.006
61.98	2.282
62.2	16.778
62.42	14.456
62.64	17.438
62.86	1.271
63.08	0.77
63.3	5.644
63.52	13.154
63.74	21.409
63.96	34.272
64.18	15.583
64.4	6.918
64.62	9.85
64.84	11.109
65.06	2.183
65.28	16.568
65.5	6.415
65.72	3.257
65.94	9.967
66.16	0.167
66.38	4.259
66.6	13.623
66.82	27.321
67.04	8.066
67.26	4.198
67.48	0.244
67.7	1.944
67.92	0.146
68.14	23.154
68.36	5.093
68.58	18.061
68.8	23.988
69.02	22.646
69.24	2.37
69.46	23.458
69.68	0.658
69.9	12.371
70.12	14.599
70.34	11.712
70.56	4.267
70.78	0.461
71	17.35
71.22	10.817
71.44	17.146
71.66	16.926
71.88	7.465
72.1	42.028
72.32	5.292
72.54	1.783
72.76	15.33
72.98	11.167
73.2	10.236
73.42	5.342
73.64	8.056
73.86	14.844
74.08	2.232
74.3	18.127
74.52	10.791
74.74	7.294
74.96	1.571
75.18	2.668
75.4	10.585
75.62	15.956
75.84	13.094
76.06	11.669
76.28	9.361
76.5	3.44
76.72	25.431
76.94	8.119
77.16	8.416
77.38	2.143
77.6	11.197
77.82	9.268
78.04	9.021
78.26	10.537
78.48	13.149
78.7	15.227
78.92	1.908
79.14	8.241
79.36	6.873
79.58	8.24
79.8	9.703
80.02	1.127
80.24	7.76
80.46	15.123
80.68	2.585
80.9	5.895
81.12	20.747
81.34	0.869
81.56	12.029
81.78	0.54
82	13.148
82.22	4.743
82.44	14.461
82.66	10.883
82.88	5.482
83.1	12.141
83.32	14.522
83.54	12.583
83.76	5.656
83.98	22.513
84.2	4.625
84.42	2.58
84.64	7.788
84.86	2.722
85.08	20.72
85.3	20.718
85.52	22.796
85.74	1.582
85.96	16.179
86.18	11.236
86.4	13.111
86.62	9.799
86.84	14.334
87.06	7.382
87.28	19.726
87.5	7.55
87.72	16.659
87.94	20.764
88.16	6.836
88.38	10.049
88.6	2.258
88.82	7.385
89.04	4.703
89.26	8.176
89.48	10.449
89.7	12.454
89.92	12.925
