Measurement: Powder, Xray Data XY Processed
Mineral: Axinite-(Fe)
Rruff sample: R050026
Ideal chemistry: Ca_4_Fe^2+^_2_Al_4_[B_2_Si_8_O_30_](OH)_2_
Locality: Pouyva mine, Polar Urals, Western Siberian Region, Russia
Source: Rock Currier
Description: Brown transparent flat crystal
Diffraction sample description: Powder
Measured chemistry: Ca_2.00_(Fe^2+^_0.61_Mn_0.26_Mg_0.13_)Al_2.00_BSi_4_O_15_(OH)
Cell parameters: a: 7.1514(3) b: 9.1933(8) c: 8.9558(5) alpha: 91.83(1) beta: 98.164(5) gamma: 77.295(7) volume: 568.57(4) crystal system: triclinic
x	intensity
5	0
5.22	17.794
5.44	21.479
5.66	8.507
5.88	25.053
6.1	22.64
6.32	14.544
6.54	34.249
6.76	1.978
6.98	11.905
7.2	14.381
7.42	6.831
7.64	0.116
7.86	5.907
8.08	14.56
8.3	7.9
8.52	2.179
8.74	11.032
8.96	0.407
9.18	4.697
9.4	10.495
9.62	10.184
9.84	16.423
10.06	16.847
10.28	10.441
10.5	0.944
10.72	11.131
10.94	5.588
11.16	15.241
11.38	12.112
11.6	8.052
11.82	2.266
12.04	22.325
12.26	13.217
12.48	13.575
12.7	15.536
12.92	11.467
13.14	9.023
13.36	14.652
13.58	13.222
13.8	12.338
14.02	32.107
14.24	27.027
14.46	16.306
14.68	20.436
14.9	23.343
15.12	12.688
15.34	11.963
15.56	12.926
15.78	13.15
16	2.259
16.22	11.042
16.44	13.05
16.66	2.196
16.88	4.523
17.1	7.104
17.32	7.361
17.54	0.994
17.76	11.703
17.98	16.278
18.2	16.528
18.42	11.419
18.64	10.55
18.86	3.617
19.08	2.624
19.3	12.639
19.52	4.53
19.74	9.427
19.96	28.666
20.18	6.513
20.4	7.305
20.62	2.313
20.84	18.612
21.06	10.607
21.28	5.516
21.5	7.136
21.72	4.544
21.94	0.387
22.16	14.415
22.38	21.977
22.6	3.389
22.82	10.509
23.04	11.601
23.26	1.991
23.48	10.179
23.7	8.187
23.92	6.479
24.14	4.779
24.36	13.587
24.58	9.515
24.8	22.051
25.02	14.51
25.24	10.346
25.46	7.804
25.68	23.103
25.9	65.606
26.12	20.437
26.34	10.41
26.56	1.493
26.78	10.351
27	19.035
27.22	47.927
27.44	26.111
27.66	24.052
27.88	18.976
28.1	9.987
28.32	280.084
28.54	7.316
28.76	11.574
28.98	35.844
29.2	10.701
29.42	7.159
29.64	44.505
29.86	55.521
30.08	22.593
30.3	29.841
30.52	11.039
30.74	11.067
30.96	67.911
31.18	3.836
31.4	8.829
31.62	18.428
31.84	33.975
32.06	53.231
32.28	11.897
32.5	6.07
32.72	3.643
32.94	7.208
33.16	9.142
33.38	3.671
33.6	17.082
33.82	13.841
34.04	15.204
34.26	11.265
34.48	4.414
34.7	3.502
34.92	19.223
35.14	40.138
35.36	5.139
35.58	1.169
35.8	11.515
36.02	11.472
36.24	37.502
36.46	5.633
36.68	6.935
36.9	41.219
37.12	18.062
37.34	5.403
37.56	25.761
37.78	12.388
38	17.241
38.22	22.756
38.44	2.976
38.66	15.378
38.88	8.515
39.1	16.484
39.32	6.358
39.54	11.579
39.76	13.932
39.98	5.344
40.2	25.774
40.42	8.819
40.64	4.434
40.86	4.989
41.08	22.737
41.3	78.763
41.52	4.863
41.74	8.171
41.96	36.191
42.18	4.516
42.4	2.709
42.62	26.951
42.84	10.148
43.06	16.949
43.28	12.462
43.5	2.352
43.72	7.236
43.94	4.451
44.16	35.36
44.38	1.608
44.6	32.901
44.82	13.407
45.04	26.797
45.26	32.842
45.48	35.946
45.7	61.927
45.92	10.919
46.14	0.279
46.36	19.576
46.58	15.64
46.8	7.788
47.02	13.338
47.24	21.099
47.46	7.895
47.68	4.316
47.9	17.141
48.12	8.385
48.34	10.133
48.56	9.121
48.78	5.781
49	7.676
49.22	18.392
49.44	10.853
49.66	15.683
49.88	9.829
50.1	13.529
50.32	9.089
50.54	9.574
50.76	7.864
50.98	7.647
51.2	22.632
51.42	1.561
51.64	4.083
51.86	11.063
52.08	4.093
52.3	6.812
52.52	10.222
52.74	3.818
52.96	8.119
53.18	18.236
53.4	11.675
53.62	3.384
53.84	8.916
54.06	12.602
54.28	9.271
54.5	9.025
54.72	2.572
54.94	1.995
55.16	12.294
55.38	27.606
55.6	18.944
55.82	6.197
56.04	3.059
56.26	0.931
56.48	15.05
56.7	9.153
56.92	17.528
57.14	6.115
57.36	16.48
57.58	14.725
57.8	22.326
58.02	8.96
58.24	3.905
58.46	15.585
58.68	9.813
58.9	10.741
59.12	10.95
59.34	8.127
59.56	1.793
59.78	18.915
60	21.14
60.22	10.384
60.44	9.215
60.66	17.015
60.88	20.059
61.1	10.154
61.32	17.263
61.54	16.383
61.76	12.265
61.98	15.979
62.2	22.229
62.42	17.811
62.64	6.856
62.86	22.159
63.08	18.173
63.3	10.075
63.52	13.2
63.74	13.409
63.96	21.732
64.18	18.963
64.4	10.277
64.62	8.457
64.84	19.62
65.06	15.443
65.28	12.039
65.5	17.055
65.72	9.571
65.94	21.463
66.16	3.497
66.38	10.63
66.6	18.219
66.82	17.418
67.04	21.032
67.26	12.05
67.48	10.158
67.7	12.094
67.92	9.293
68.14	17.407
68.36	21.821
68.58	1.587
68.8	12.737
69.02	12.859
69.24	17.656
69.46	14.478
69.68	8.576
69.9	7.615
70.12	8.173
70.34	8.999
70.56	4.952
70.78	11.217
71	4.699
71.22	16.353
71.44	5.529
71.66	14.739
71.88	14.695
72.1	18.539
72.32	5.64
72.54	3.746
72.76	8.369
72.98	18.001
73.2	6.606
73.42	9.728
73.64	16.672
73.86	2.674
74.08	11.724
74.3	13.706
74.52	13.672
74.74	10.609
74.96	10.942
75.18	10.382
75.4	5.719
75.62	11.283
75.84	16.286
76.06	12.55
76.28	11.222
76.5	6.482
76.72	11.487
76.94	14.678
77.16	8.776
77.38	4.969
77.6	3.833
77.82	11.438
78.04	19.794
78.26	16.282
78.48	4.198
78.7	11.37
78.92	13.58
79.14	4.924
79.36	21.109
79.58	6.888
79.8	20.676
80.02	16.618
80.24	17.815
80.46	12.791
80.68	19.85
80.9	3.02
81.12	7.337
81.34	12.601
81.56	2.828
81.78	7.226
82	6.327
82.22	14.388
82.44	9.473
82.66	18.444
82.88	14.832
83.1	9.747
83.32	11.257
83.54	6.99
83.76	12.494
83.98	14.493
84.2	11.143
84.42	16.15
84.64	15.118
84.86	11.12
85.08	4.92
85.3	14.647
85.52	14.723
85.74	1.694
85.96	21.131
86.18	7.348
86.4	0.672
86.62	12.701
86.84	4.273
87.06	15.754
87.28	0.777
87.5	5.926
87.72	10.04
87.94	3.134
88.16	3.032
88.38	22.104
88.6	5.444
88.82	17.404
89.04	6.843
89.26	12.465
89.48	14.367
89.7	13.161
89.92	5.211
