Measurement: Powder, Xray Data XY Processed
Mineral: Axinite-(Fe)
Rruff sample: R060558
Ideal chemistry: Ca_4_Fe^2+^_2_Al_4_[B_2_Si_8_O_30_](OH)_2_
Locality: unknown
Source: Gemological Institute of America
Description: Brown flattened crystal
Diffraction sample description: Powder
Measured chemistry: Ca_2.00_(Fe^2+^_0.60_Mg_0.35_Mn_0.05_)_Î£=1_Al_2.00_BSi_4.00_O_15_(OH) ; B not measured
Cell parameters: a: 7.1448(2) b: 9.1868(5) c: 8.9531(6) alpha: 91.877(5) beta: 98.165(3) gamma: 77.375(5) volume: 567.64(4) crystal system: triclinic
x	intensity
5	0
5.22	14.636
5.44	3.82731
5.66	3.02921
5.88	4.66672
6.1	17.825
6.32	4.55496
6.54	10.6783
6.76	16.8209
6.98	4.36203
7.2	6.71538
7.42	13.2206
7.64	4.73869
7.86	13.0527
8.08	3.58252
8.3	4.00959
8.52	1.66612
8.74	13.0743
8.96	3.29419
9.18	0.497879
9.4	2.58486
9.62	14.0656
9.84	21.2988
10.06	14.4926
10.28	7.74514
10.5	12.0645
10.72	19.8981
10.94	2.87818
11.16	0.125807
11.38	9.04715
11.6	0.215677
11.82	2.27341
12.04	13.3533
12.26	12.586
12.48	13.4107
12.7	9.81969
12.92	9.55875
13.14	9.51357
13.36	9.48185
13.58	0.269861
13.8	7.227
14.02	19.0762
14.24	10.2032
14.46	7.58305
14.68	2.33684
14.9	3.50229
15.12	14.9171
15.34	7.14914
15.56	12.884
15.78	4.05944
16	11.2115
16.22	3.5469
16.44	1.82839
16.66	16.4257
16.88	19.3567
17.1	8.43426
17.32	11.3505
17.54	12.3684
17.76	17.6178
17.98	18.8142
18.2	8.93446
18.42	15.0127
18.64	15.9054
18.86	6.81235
19.08	1.05407
19.3	11.4946
19.52	11.3647
19.74	10.7918
19.96	10.9634
20.18	17.9919
20.4	1.81259
20.62	16.6824
20.84	11.8649
21.06	7.93011
21.28	1.89573
21.5	1.61068
21.72	8.61565
21.94	12.9801
22.16	8.0447
22.38	18.1708
22.6	18.1313
22.82	13.2229
23.04	12.2475
23.26	8.85994
23.48	0.438715
23.7	9.52828
23.92	9.32223
24.14	11.5623
24.36	16.0651
24.58	9.73651
24.8	9.0539
25.02	6.77887
25.24	10.1941
25.46	14.2715
25.68	17.4201
25.9	51.7193
26.12	31.6996
26.34	14.652
26.56	4.752
26.78	13.4091
27	0.450645
27.22	30.6744
27.44	7.76162
27.66	4.6608
27.88	3.80916
28.1	14.1195
28.32	206.623
28.54	25.283
28.76	15.0067
28.98	18.6293
29.2	3.58354
29.42	2.63785
29.64	24.2917
29.86	30.0589
30.08	8.73396
30.3	8.98389
30.52	4.32344
30.74	3.22878
30.96	35.1814
31.18	12.2111
31.4	8.36282
31.62	32.8619
31.84	19.0348
32.06	23.6481
32.28	47.2031
32.5	6.6339
32.72	7.47156
32.94	2.93282
33.16	6.21786
33.38	14.5053
33.6	11.6344
33.82	15.7779
34.04	15.4599
34.26	6.17228
34.48	8.94988
34.7	5.93904
34.92	35.1929
35.14	25.1779
35.36	0.718166
35.58	2.21693
35.8	5.44404
36.02	10.5246
36.24	8.58926
36.46	8.91872
36.68	3.0702
36.9	18.5081
37.12	11.5756
37.34	10.5392
37.56	11.093
37.78	7.79817
38	10.789
38.22	32.9147
38.44	12.1072
38.66	3.05583
38.88	15.6083
39.1	3.40381
39.32	14.1389
39.54	3.03724
39.76	13.3131
39.98	7.57218
40.2	11.2808
40.42	2.99837
40.64	10.5784
40.86	3.0932
41.08	19.0593
41.3	91.7255
41.52	28.6809
41.74	8.14514
41.96	40.4245
42.18	25.8859
42.4	5.5461
42.62	10.8895
42.84	3.6176
43.06	3.8525
43.28	3.36757
43.5	6.1365
43.72	16.7727
43.94	4.22654
44.16	32.6564
44.38	5.25161
44.6	12.0962
44.82	10.7363
45.04	14.43
45.26	26.9272
45.48	60.8997
45.7	34.6795
45.92	6.75787
46.14	7.12393
46.36	21.0147
46.58	1.35929
46.8	2.56638
47.02	18.8053
47.24	24.9171
47.46	5.96191
47.68	12.2715
47.9	0.91555
48.12	3.1816
48.34	14.7496
48.56	1.61514
48.78	6.86269
49	7.0165
49.22	9.27144
49.44	13.4674
49.66	12.2978
49.88	10.8804
50.1	12.6393
50.32	9.04735
50.54	7.68565
50.76	3.72778
50.98	2.47912
51.2	19.0864
51.42	17.6553
51.64	0.248932
51.86	0.034855
52.08	8.88185
52.3	7.63001
52.52	14.6556
52.74	7.01506
52.96	17.1753
53.18	18.3857
53.4	11.4286
53.62	1.87295
53.84	10.889
54.06	13.0456
54.28	4.08274
54.5	7.39707
54.72	6.19344
54.94	8.17686
55.16	17.1117
55.38	12.8184
55.6	9.13171
55.82	19.5568
56.04	13.396
56.26	1.35566
56.48	13.4605
56.7	6.65359
56.92	7.73515
57.14	8.64564
57.36	0.602652
57.58	8.49778
57.8	15.8493
58.02	10.1447
58.24	11.7142
58.46	10.8249
58.68	1.93321
58.9	13.3387
59.12	12.9201
59.34	5.03434
59.56	13.7488
59.78	14.0205
60	14.2028
60.22	8.09996
60.44	12.0158
60.66	13.2079
60.88	2.2986
61.1	0.152514
61.32	7.64572
61.54	11.8203
61.76	22.8919
61.98	12.4629
62.2	17.4554
62.42	13.2628
62.64	4.22615
62.86	16.6934
63.08	9.59652
63.3	8.78433
63.52	2.84782
63.74	14.9867
63.96	19.6613
64.18	11.7633
64.4	3.82304
64.62	9.88866
64.84	9.91767
65.06	5.45462
65.28	4.66834
65.5	10.6995
65.72	7.5638
65.94	17.4024
66.16	7.50188
66.38	0.194704
66.6	6.90838
66.82	6.9375
67.04	11.6285
67.26	12.1429
67.48	8.70738
67.7	8.45592
67.92	3.72839
68.14	11.9858
68.36	3.00765
68.58	8.317
68.8	4.11523
69.02	0.313278
69.24	2.53941
69.46	5.81515
69.68	5.48201
69.9	15.9107
70.12	11.8746
70.34	11.6449
70.56	9.7055
70.78	11.7229
71	6.50678
71.22	27.6266
71.44	16.6613
71.66	4.03354
71.88	0.96368
72.1	4.12986
72.32	10.7861
72.54	0.853115
72.76	5.90912
72.98	1.89397
73.2	12.9838
73.42	3.96982
73.64	1.84648
73.86	19.6805
74.08	0.863556
74.3	8.95506
74.52	8.08584
74.74	3.44693
74.96	12.5195
75.18	4.85458
75.4	14.9046
75.62	4.85133
75.84	8.9591
76.06	7.94336
76.28	3.69284
76.5	17.702
76.72	3.06164
76.94	11.6964
77.16	5.66835
77.38	2.88349
77.6	4.71967
77.82	12.5546
78.04	11.6213
78.26	5.67041
78.48	16.5988
78.7	1.76834
78.92	6.89129
79.14	10.942
79.36	5.54387
79.58	2.54811
79.8	15.4932
80.02	6.49639
80.24	10.4846
80.46	11.4832
80.68	1.2469
80.9	14.0004
81.12	10.8506
81.34	17.7962
81.56	4.22151
81.78	12.7739
82	6.11509
82.22	0.02919
82.44	1.0885
82.66	16.169
82.88	7.53783
83.1	14.4934
83.32	3.00879
83.54	6.84936
83.76	2.99292
83.98	5.42756
84.2	4.24704
84.42	1.66162
84.64	1.45678
84.86	6.309
85.08	15.4804
85.3	7.38952
85.52	5.38607
85.74	2.43052
85.96	2.77839
86.18	7.48363
86.4	0.175404
86.62	0.200012
86.84	12.3375
87.06	2.55009
87.28	13.4411
87.5	1.30187
87.72	11.3678
87.94	14.7962
88.16	6.88266
88.38	0.813782
88.6	11.1928
88.82	6.68059
89.04	15.0264
89.26	8.35094
89.48	11.6329
89.7	2.80964
89.92	7.93659
