Measurement: Powder, Xray Data XY Processed
Mineral: Axinite-(Fe)
Rruff sample: R060183
Ideal chemistry: Ca_4_Fe^2+^_2_Al_4_[B_2_Si_8_O_30_](OH)_2_
Locality: Skagit Bluffs, near Manning Park, British Columbia, Canada
Source: Lloyd Twaites
Description: Light-pink transparent axe-head-shaped single crystal
Diffraction sample description: Powder
Measured chemistry: Ca_2.00_(Fe^2+^_0.58_Mn_0.23_Mg_0.19_)Al_2.00_B_1.00_Si_4.00_O_15_(OH)
Cell parameters: a: 7.1491(5) b: 9.1878(7) c: 8.9527(9) alpha: 91.85(1) beta: 98.208(8) gamma: 77.334(6) volume: 567.87(6) crystal system: triclinic
x	intensity
5	0
5.22	7.889
5.44	12.561
5.66	1.403
5.88	13.052
6.1	10.93
6.32	0.976
6.54	3.408
6.76	27.369
6.98	19.668
7.2	8.809
7.42	19.532
7.64	11.21
7.86	9.629
8.08	13.317
8.3	11.928
8.52	10.469
8.74	4.114
8.96	10.085
9.18	4.646
9.4	9.306
9.62	11.958
9.84	7.356
10.06	10.517
10.28	10.303
10.5	15.844
10.72	0.374
10.94	13.662
11.16	13.56
11.38	12.369
11.6	9.053
11.82	3.316
12.04	12.441
12.26	1.916
12.48	17.812
12.7	6.316
12.92	8.889
13.14	14.602
13.36	14.446
13.58	3.46
13.8	21.417
14.02	16.208
14.24	11.222
14.46	14.505
14.68	5.22
14.9	0.605
15.12	17.825
15.34	9.151
15.56	12.434
15.78	6.916
16	2.373
16.22	10.464
16.44	1.515
16.66	18.153
16.88	8.236
17.1	6.205
17.32	1.474
17.54	0.317
17.76	14.542
17.98	0.728
18.2	1.483
18.42	17.041
18.64	3.907
18.86	18.097
19.08	7.586
19.3	13.307
19.52	8.3
19.74	3.282
19.96	8.553
20.18	7.737
20.4	7.141
20.62	1.147
20.84	11.166
21.06	7.585
21.28	3.481
21.5	0.075
21.72	3.048
21.94	16.14
22.16	2.335
22.38	14.257
22.6	3.532
22.82	2.5
23.04	8.417
23.26	11.58
23.48	6.014
23.7	8.982
23.92	5.064
24.14	19.115
24.36	12.165
24.58	6.757
24.8	5.392
25.02	7.207
25.24	7.138
25.46	0.938
25.68	22.816
25.9	65.109
26.12	22.976
26.34	15.948
26.56	5.749
26.78	5.629
27	8.835
27.22	34.719
27.44	8.48
27.66	1.64
27.88	1.952
28.1	5.419
28.32	134.108
28.54	8.526
28.76	14.624
28.98	8.425
29.2	3.318
29.42	7.588
29.64	23.789
29.86	23.45
30.08	4.119
30.3	11.715
30.52	7.766
30.74	2.627
30.96	26.979
31.18	23.432
31.4	3.726
31.62	35.148
31.84	24.392
32.06	64.672
32.28	28.393
32.5	13.503
32.72	7.326
32.94	4.708
33.16	0.687
33.38	14.643
33.6	16.614
33.82	23.036
34.04	22.923
34.26	13.93
34.48	12.693
34.7	3.651
34.92	32.052
35.14	19.793
35.36	10.299
35.58	12.049
35.8	21.139
36.02	1.94
36.24	9.949
36.46	4.203
36.68	2.594
36.9	25.022
37.12	4.852
37.34	21.845
37.56	7.528
37.78	7.613
38	12.699
38.22	23.961
38.44	1.239
38.66	8.36
38.88	15.741
39.1	11.449
39.32	8.387
39.54	10.38
39.76	11.289
39.98	1.558
40.2	2.099
40.42	9.629
40.64	3.238
40.86	3.2
41.08	21.679
41.3	37.406
41.52	4.105
41.74	11.219
41.96	30.269
42.18	14.135
42.4	15.559
42.62	18.751
42.84	9.213
43.06	11.191
43.28	6.283
43.5	14.121
43.72	5.696
43.94	9.415
44.16	22.921
44.38	9.093
44.6	9.438
44.82	6.026
45.04	4.189
45.26	28.542
45.48	54.534
45.7	44.699
45.92	7.35
46.14	0.453
46.36	10.275
46.58	19.697
46.8	16.258
47.02	4.751
47.24	8.517
47.46	2.652
47.68	8.571
47.9	3.191
48.12	2.859
48.34	24.613
48.56	7.74
48.78	6.43
49	9.582
49.22	9.565
49.44	7.529
49.66	5.217
49.88	0.93
50.1	12.847
50.32	1.605
50.54	6.557
50.76	9.518
50.98	6.682
51.2	9.608
51.42	12.538
51.64	6.489
51.86	0.62
52.08	6.397
52.3	9.366
52.52	11.936
52.74	12.902
52.96	11.531
53.18	4.626
53.4	10.409
53.62	4.633
53.84	8.808
54.06	16.495
54.28	3.02
54.5	3.036
54.72	5.617
54.94	7.334
55.16	12.345
55.38	15.876
55.6	7.385
55.82	14.807
56.04	10.123
56.26	4.599
56.48	32.557
56.7	0.562
56.92	10.198
57.14	8.421
57.36	8.797
57.58	5.563
57.8	9.795
58.02	17.096
58.24	4.879
58.46	15.959
58.68	19.635
58.9	13.115
59.12	17.419
59.34	17.827
59.56	19.189
59.78	17.391
60	16.737
60.22	15.813
60.44	20.362
60.66	14.314
60.88	16.93
61.1	2.243
61.32	9.876
61.54	15.696
61.76	15.476
61.98	0.915
62.2	9.828
62.42	4.515
62.64	11.398
62.86	7.452
63.08	12.943
63.3	8.072
63.52	3.004
63.74	9.33
63.96	28.203
64.18	18.386
64.4	6.227
64.62	12.123
64.84	18.201
65.06	12.969
65.28	10.922
65.5	20.828
65.72	11.549
65.94	13.649
66.16	6.503
66.38	13.805
66.6	13.718
66.82	14.207
67.04	11.302
67.26	7.503
67.48	4.067
67.7	12.251
67.92	14.354
68.14	1.584
68.36	8.803
68.58	0.253
68.8	1.826
69.02	20.803
69.24	11.693
69.46	7.746
69.68	10.539
69.9	5.651
70.12	17.677
70.34	11.802
70.56	4.244
70.78	8.276
71	16.794
71.22	7.059
71.44	6.101
71.66	8.411
71.88	0.591
72.1	9.344
72.32	6.355
72.54	0.413
72.76	14.286
72.98	10.815
73.2	8.707
73.42	9.414
73.64	15.08
73.86	10.267
74.08	7.095
74.3	16.232
74.52	10.436
74.74	4.29
74.96	20.433
75.18	18.558
75.4	12.633
75.62	15.786
75.84	18.942
76.06	3.092
76.28	12.098
76.5	8.023
76.72	15.398
76.94	15.601
77.16	0.791
77.38	14.697
77.6	7.945
77.82	16.295
78.04	18.43
78.26	3.408
78.48	7.577
78.7	0.71
78.92	16.736
79.14	10.192
79.36	0.941
79.58	14.932
79.8	14.956
80.02	4.104
80.24	8.756
80.46	0.408
80.68	12.004
80.9	15.166
81.12	13.139
81.34	0.867
81.56	2.807
81.78	5.818
82	11.921
82.22	10.639
82.44	21.243
82.66	9.239
82.88	2.366
83.1	11.284
83.32	9.021
83.54	8.226
83.76	5.091
83.98	9.13
84.2	17.189
84.42	0.122
84.64	8.718
84.86	15.285
85.08	13.271
85.3	0.553
85.52	12.728
85.74	9.962
85.96	13.187
86.18	6.088
86.4	12.02
86.62	3.941
86.84	8.387
87.06	3.189
87.28	15.854
87.5	7.637
87.72	20.055
87.94	10.732
88.16	6.832
88.38	12.64
88.6	12.902
88.82	4.217
89.04	7.408
89.26	19.123
89.48	7.084
89.7	7.836
89.92	10.567
