Measurement: Powder, Xray Data XY Processed
Mineral: Beryl
Rruff sample: R050065
Ideal chemistry: Be_3_Al_2_Si_6_O_18_
Locality: Xuebaoding, Sichuan Province, China
Source: Rock Currier
Description: Light blue colored tabular single crystal
Diffraction sample description: Powder
Measured chemistry: (Be_2.78_Li_0.22_)_Σ=3_Al_2.00_Si_6.00_O_18_·Na_0.22_
Cell parameters: a: 9.2165(1) b: 9.2165(1) c: 9.2181(3) alpha: 90. beta: 90. gamma: 120. volume: 678.12(2) crystal system: hexagonal
x	intensity
5	0
5.22	13.6
5.44	12.507
5.66	12.085
5.88	8.944
6.1	10.926
6.32	14.558
6.54	8.711
6.76	15.492
6.98	5.847
7.2	3.574
7.42	1.359
7.64	11.937
7.86	6.636
8.08	10.174
8.3	12.042
8.52	9.227
8.74	4.7
8.96	10.235
9.18	1.993
9.4	11.343
9.62	18.101
9.84	7.956
10.06	28.753
10.28	4.271
10.5	5.584
10.72	22.521
10.94	43.514
11.16	647.511
11.38	18.333
11.6	16.063
11.82	7.672
12.04	5.727
12.26	1.854
12.48	14.152
12.7	4.34
12.92	0.467
13.14	13.576
13.36	6.977
13.58	3.069
13.8	2.511
14.02	5.591
14.24	8.953
14.46	1.666
14.68	11.35
14.9	11.656
15.12	1.293
15.34	2.564
15.56	11.754
15.78	2.108
16	15.4
16.22	12.393
16.44	10.421
16.66	1.39
16.88	5.249
17.1	7.037
17.32	6.935
17.54	12.447
17.76	4.232
17.98	0.042
18.2	16.728
18.42	4.321
18.64	3.389
18.86	17.291
19.08	10.443
19.3	388.473
19.52	13.573
19.74	7.479
19.96	10.496
20.18	3.773
20.4	14.758
20.62	1.722
20.84	5.993
21.06	5.649
21.28	2.397
21.5	0.283
21.72	4.092
21.94	9.884
22.16	12.039
22.38	107.177
22.6	0.982
22.82	8.433
23.04	2.909
23.26	3.756
23.48	1.111
23.7	7.029
23.92	4.678
24.14	6.676
24.36	4.506
24.58	2.267
24.8	9.524
25.02	10.668
25.24	14.072
25.46	1.624
25.68	11.28
25.9	10.84
26.12	1.711
26.34	0.696
26.56	5.784
26.78	9.436
27	4.015
27.22	42.609
27.44	796.911
27.66	26.96
27.88	8.243
28.1	19.445
28.32	9.519
28.54	7.56
28.76	5.64
28.98	5.681
29.2	2.894
29.42	19.787
29.64	418.876
29.86	14.107
30.08	1.502
30.3	2.322
30.52	0.352
30.74	6.31
30.96	24.399
31.18	797.838
31.4	54.155
31.62	9.669
31.84	11.422
32.06	9.128
32.28	6.131
32.5	0.86
32.72	4.404
32.94	4.926
33.16	3.521
33.38	12.708
33.6	6.657
33.82	12.696
34.04	4.005
34.26	1.858
34.48	14.752
34.7	10.707
34.92	9.723
35.14	7.883
35.36	16.759
35.58	255.386
35.8	15.686
36.02	6.785
36.24	14.072
36.46	9.417
36.68	7.763
36.9	12.033
37.12	5.138
37.34	1.621
37.56	8.311
37.78	26.489
38	4.194
38.22	8.26
38.44	0.257
38.66	4.369
38.88	5.314
39.1	68.304
39.32	7.398
39.54	2.902
39.76	14.428
39.98	5.467
40.2	4.597
40.42	1.552
40.64	15.24
40.86	68.95
41.08	1.653
41.3	1.632
41.52	4.387
41.74	7.02
41.96	131.225
42.18	11.475
42.4	0.475
42.62	4.119
42.84	7.103
43.06	1.274
43.28	5.984
43.5	14.248
43.72	5.213
43.94	24.629
44.16	1.8
44.38	1.237
44.6	0.322
44.82	2.9
45.04	5.011
45.26	13.304
45.48	77.515
45.7	5.026
45.92	2.194
46.14	5.409
46.36	7.259
46.58	7.261
46.8	8.476
47.02	3.609
47.24	1.533
47.46	1.568
47.68	4.333
47.9	4.221
48.12	2.689
48.34	9.082
48.56	4.84
48.78	3.68
49	0.201
49.22	7.093
49.44	9.909
49.66	7.867
49.88	20.81
50.1	0.19
50.32	5.415
50.54	16.408
50.76	24.575
50.98	60.51
51.2	8.433
51.42	5.67
51.64	4.387
51.86	5.596
52.08	2.417
52.3	12.236
52.52	226.781
52.74	30.275
52.96	2.345
53.18	4.286
53.4	16.557
53.62	14.763
53.84	8.051
54.06	1.986
54.28	0.175
54.5	1.879
54.72	5.219
54.94	4.588
55.16	5.736
55.38	11.499
55.6	4.202
55.82	9.063
56.04	7.766
56.26	12.492
56.48	161.619
56.7	26.786
56.92	9.218
57.14	7.053
57.36	9.807
57.58	4.686
57.8	15.785
58.02	5.512
58.24	7.65
58.46	13.929
58.68	96.243
58.9	14.545
59.12	1.68
59.34	0.709
59.56	2.843
59.78	2.122
60	0.894
60.22	28.46
60.44	10.89
60.66	3.889
60.88	14.391
61.1	59.554
61.32	69.484
61.54	8.617
61.76	1.798
61.98	3.12
62.2	15.384
62.42	7.709
62.64	1.769
62.86	4.805
63.08	8.82
63.3	8.187
63.52	10.984
63.74	14.017
63.96	32.904
64.18	0.237
64.4	9.37
64.62	0.52
64.84	2.574
65.06	110.637
65.28	15.727
65.5	0.987
65.72	5.243
65.94	15.395
66.16	16.806
66.38	3.951
66.6	2.205
66.82	6.384
67.04	9.359
67.26	1.876
67.48	1.149
67.7	5.053
67.92	4.228
68.14	4.845
68.36	9.849
68.58	22.9
68.8	12.228
69.02	5.429
69.24	1.257
69.46	1.475
69.68	1.756
69.9	5.9
70.12	0.393
70.34	8.335
70.56	7.383
70.78	15.346
71	8.324
71.22	4.085
71.44	9.078
71.66	4.014
71.88	4.83
72.1	3.623
72.32	3.393
72.54	5.356
72.76	15.161
72.98	5.955
73.2	1.626
73.42	0.321
73.64	0.199
73.86	4.654
74.08	31.501
74.3	34.385
74.52	10.632
74.74	7.671
74.96	38.05
75.18	40.262
75.4	19.745
75.62	5.125
75.84	5.437
76.06	7.86
76.28	0.878
76.5	3.321
76.72	1.592
76.94	12.792
77.16	3.963
77.38	0.372
77.6	4.195
77.82	6.845
78.04	2.149
78.26	2.669
78.48	15.388
78.7	5.251
78.92	4.2
79.14	12.166
79.36	128.955
79.58	60.834
79.8	9.174
80.02	6.437
80.24	0.644
80.46	2.747
80.68	13.127
80.9	8.613
81.12	4.049
81.34	8.488
81.56	12.908
81.78	14.984
82	4.058
82.22	9.044
82.44	1.152
82.66	5.152
82.88	2.992
83.1	3.889
83.32	1.526
83.54	7.727
83.76	3.464
83.98	23.002
84.2	5.909
84.42	1.977
84.64	11.862
84.86	7.712
85.08	11.781
85.3	17.892
85.52	9.928
85.74	1.923
85.96	0.676
86.18	5.49
86.4	3.434
86.62	5.527
86.84	6.433
87.06	20.35
87.28	11.277
87.5	6.087
87.72	3.289
87.94	0.508
88.16	8.458
88.38	8.703
88.6	10.998
88.82	0.557
89.04	8.606
89.26	2.177
89.48	5.56
89.7	9.942
89.92	12.62
