Measurement: Powder, Xray Data XY Processed
Mineral: Beryl
Rruff sample: R060942
Ideal chemistry: Be_3_Al_2_Si_6_O_18_
Locality: Mingore mine, Swat Valley, Pakistan
Source: Lawrence W. Snee
Description: Green hexagonal prisms, variety emerald
Diffraction sample description: Powder
Measured chemistry: (Be_2.94_Li_0.06_)_Σ=3_(Al_1.55_Mg_0.37_Fe^3+^_0.06_Cr^3+^_0.02_)_Σ=2_Si_6.00_O_18_·Na_0.42_; Be and Li not measured but estimated by stoichiometry
Cell parameters: a: 9.2612(2) b: 9.2612(2) c: 9.1985(2) alpha: 90 beta: 90 gamma: 120 volume: 683.25(3) crystal system: hexagonal
x	intensity
5	0
5.22	0.258179
5.44	8.76139
5.66	0.02939
5.88	15.7711
6.1	13.0111
6.32	19.1594
6.54	4.31416
6.76	6.71403
6.98	11.0231
7.2	11.7408
7.42	4.97073
7.64	5.19318
7.86	2.5571
8.08	2.59572
8.3	5.76074
8.52	9.80745
8.74	15.0133
8.96	17.0032
9.18	8.82934
9.4	7.38465
9.62	3.66265
9.84	7.32683
10.06	4.09186
10.28	8.62214
10.5	4.37697
10.72	14.1602
10.94	53.587
11.16	25.6196
11.38	23.6747
11.6	10.763
11.82	2.54213
12.04	10.8165
12.26	15.3628
12.48	46.7638
12.7	19.3685
12.92	13.6994
13.14	13.6442
13.36	7.88335
13.58	18.5186
13.8	11.4586
14.02	20.3253
14.24	16.6726
14.46	26.4101
14.68	12.9672
14.9	6.79553
15.12	13.116
15.34	0.915531
15.56	3.35091
15.78	0.540443
16	10.2623
16.22	11.1146
16.44	11.4037
16.66	11.0641
16.88	4.64013
17.1	3.07326
17.32	8.49444
17.54	11.695
17.76	4.66161
17.98	9.79656
18.2	12.419
18.42	15.25
18.64	10.7647
18.86	19.2933
19.08	26.4999
19.3	244.401
19.52	16.4069
19.74	7.68673
19.96	10.961
20.18	8.60623
20.4	1.13753
20.62	13.912
20.84	4.61365
21.06	9.54303
21.28	12.0149
21.5	2.0632
21.72	4.85985
21.94	7.26677
22.16	27.0092
22.38	34.5595
22.6	14.6623
22.82	5.96206
23.04	2.34128
23.26	14.5618
23.48	13.6666
23.7	14.9365
23.92	10.8703
24.14	6.60576
24.36	0.357491
24.58	6.45617
24.8	15.1051
25.02	0.486584
25.24	4.01729
25.46	9.23956
25.68	16.3817
25.9	1.15536
26.12	10.2779
26.34	16.6159
26.56	6.11735
26.78	16.3367
27	11.7703
27.22	36.2271
27.44	139.58
27.66	7.23075
27.88	11.7864
28.1	5.07899
28.32	13.3143
28.54	7.96427
28.76	0.368156
28.98	6.22119
29.2	15.9709
29.42	19.9354
29.64	89.5835
29.86	1.74562
30.08	24.1582
30.3	4.79397
30.52	0.02536
30.74	0.731071
30.96	23.479
31.18	220.774
31.4	14.2162
31.62	18.6777
31.84	9.83117
32.06	3.34746
32.28	10.1442
32.5	14.6799
32.72	16.3059
32.94	5.00325
33.16	0.688364
33.38	4.52283
33.6	16.269
33.82	25.6466
34.04	5.82662
34.26	10.0047
34.48	10.8183
34.7	12.2112
34.92	17.9856
35.14	4.5698
35.36	26.7163
35.58	42.492
35.8	7.99909
36.02	1.62591
36.24	14.0753
36.46	5.5625
36.68	17.9629
36.9	9.27405
37.12	0.603291
37.34	12.2518
37.56	9.41803
37.78	4.51136
38	0.949486
38.22	2.92486
38.44	7.03763
38.66	6.8239
38.88	9.73726
39.1	11.7546
39.32	14.0439
39.54	10.9195
39.76	7.58215
39.98	10.0753
40.2	16.9581
40.42	9.93239
40.64	20.8382
40.86	18.7226
41.08	0.699242
41.3	6.31301
41.52	1.90739
41.74	23.9337
41.96	13.6402
42.18	2.80985
42.4	7.86324
42.62	24.7752
42.84	4.83479
43.06	3.21398
43.28	11.4365
43.5	17.0564
43.72	5.90015
43.94	16.225
44.16	7.3523
44.38	8.31741
44.6	11.7037
44.82	9.77099
45.04	0.474857
45.26	17.0954
45.48	28.5289
45.7	8.77001
45.92	1.79824
46.14	15.4379
46.36	9.90076
46.58	4.43706
46.8	11.8199
47.02	6.94179
47.24	6.89844
47.46	16.4514
47.68	0.261518
47.9	1.69708
48.12	3.93492
48.34	0.793987
48.56	7.24003
48.78	5.18423
49	9.01343
49.22	7.25577
49.44	4.22814
49.66	1.22041
49.88	2.609
50.1	5.8703
50.32	5.37371
50.54	12.4991
50.76	17.1111
50.98	2.39124
51.2	10.4833
51.42	3.48853
51.64	15.2882
51.86	10.7005
52.08	14.7183
52.3	32.6512
52.52	28.3079
52.74	17.1716
52.96	5.27781
53.18	4.61472
53.4	26.6725
53.62	5.97258
53.84	21.1261
54.06	4.59837
54.28	10.6767
54.5	7.98562
54.72	0.13752
54.94	10.501
55.16	8.15586
55.38	10.0123
55.6	5.82726
55.82	10.5997
56.04	8.76652
56.26	10.8405
56.48	15.272
56.7	2.59981
56.92	1.68031
57.14	0.648436
57.36	8.52271
57.58	14.5715
57.8	10.662
58.02	8.04288
58.24	2.53973
58.46	17.2933
58.68	32.1452
58.9	13.1314
59.12	0.589607
59.34	3.38736
59.56	1.36442
59.78	0.401497
60	7.49249
60.22	3.75903
60.44	18.3684
60.66	5.55781
60.88	24.9468
61.1	28.3819
61.32	15.0125
61.54	5.65312
61.76	5.48382
61.98	9.78539
62.2	13.9492
62.42	3.05284
62.64	1.12393
62.86	16.2878
63.08	4.82336
63.3	13.7233
63.52	10.4668
63.74	24.01
63.96	18.4157
64.18	12.1004
64.4	10.1157
64.62	3.1629
64.84	18.2554
65.06	9.63791
65.28	7.89459
65.5	14.9438
65.72	4.16242
65.94	6.4891
66.16	8.5636
66.38	1.528
66.6	10.1921
66.82	6.9408
67.04	1.76445
67.26	2.55472
67.48	1.11123
67.7	5.73378
67.92	7.8815
68.14	3.82447
68.36	14.7032
68.58	20.9598
68.8	9.66258
69.02	0.066776
69.24	4.39702
69.46	2.91027
69.68	4.28546
69.9	0.374527
70.12	8.21296
70.34	8.24457
70.56	12.25
70.78	6.76817
71	7.69159
71.22	10.6299
71.44	10.3157
71.66	9.18382
71.88	8.84367
72.1	16.8652
72.32	6.68577
72.54	8.21483
72.76	7.87892
72.98	0.493376
73.2	4.82186
73.42	3.52703
73.64	0.152438
73.86	18.6549
74.08	5.68581
74.3	8.81168
74.52	9.54161
74.74	11.8088
74.96	9.17865
75.18	5.17309
75.4	1.61738
75.62	11.9693
75.84	10.3922
76.06	10.8743
76.28	11.3683
76.5	2.85862
76.72	10.9198
76.94	4.15276
77.16	10.1537
77.38	11.9164
77.6	0.763494
77.82	11.0502
78.04	7.8431
78.26	11.6076
78.48	7.32015
78.7	3.18594
78.92	1.73917
79.14	10.6986
79.36	10.7137
79.58	6.80629
79.8	1.05874
80.02	0.911657
80.24	7.1464
80.46	6.41095
80.68	1.57024
80.9	6.8669
81.12	10.8634
81.34	6.05751
81.56	11.3336
81.78	0.541793
82	13.5301
82.22	1.58887
82.44	4.8917
82.66	0.96056
82.88	5.87572
83.1	0.889086
83.32	5.75478
83.54	6.88852
83.76	1.06529
83.98	10.7775
84.2	21.8069
84.42	9.71585
84.64	6.47033
84.86	13.6303
85.08	22.6902
85.3	11.6131
85.52	9.52654
85.74	9.31177
85.96	8.2734
86.18	2.05462
86.4	7.76362
86.62	9.3593
86.84	12.2603
87.06	2.55728
87.28	0.178654
87.5	10.0394
87.72	3.27471
87.94	9.41461
88.16	6.637
88.38	3.67858
88.6	5.82649
88.82	6.16642
89.04	8.54788
89.26	8.57499
89.48	6.82671
89.7	13.2884
89.92	0.402637
