Measurement: Powder, Xray Data XY Processed
Mineral: Calcite
Rruff sample: R050130
Ideal chemistry: CaCO_3_
Locality: Mexico
Source: Dave Bunk Minerals
Description: Colorless cleavage rhomb
Diffraction sample description: Powder
Measured chemistry: Ca_1.00_CO_3_; trace amounts of Si (?)
Cell parameters: a: 4.9903(1) b: 4.9903(1) c: 17.0652(4) alpha: 90. beta: 90. gamma: 120. volume: 368.03(1) crystal system: hexagonal
x	intensity
5	0
5.22	4.177
5.44	9.634
5.66	9.536
5.88	5.9
6.1	18.448
6.32	27.622
6.54	6.293
6.76	11.928
6.98	10.598
7.2	0.983
7.42	10.664
7.64	4.255
7.86	5.941
8.08	3.382
8.3	4.802
8.52	6.066
8.74	13.501
8.96	5.576
9.18	7.44
9.4	4.456
9.62	2.466
9.84	0.398
10.06	4.711
10.28	6.608
10.5	10.747
10.72	7.16
10.94	1.953
11.16	3.068
11.38	1.28
11.6	2.438
11.82	5.592
12.04	2.808
12.26	3.875
12.48	1.041
12.7	3.377
12.92	12.41
13.14	4.275
13.36	6.381
13.58	9.411
13.8	0.621
14.02	8.751
14.24	10.946
14.46	3.118
14.68	3.249
14.9	6.155
15.12	3.261
15.34	6.371
15.56	10.478
15.78	6.659
16	3.897
16.22	1.941
16.44	3.984
16.66	5.852
16.88	2.988
17.1	5.019
17.32	5.999
17.54	2.878
17.76	0.884
17.98	3.071
18.2	10.117
18.42	1.877
18.64	6.874
18.86	7.006
19.08	2.976
19.3	10.805
19.52	6.79
19.74	0.858
19.96	9.865
20.18	2.908
20.4	5.986
20.62	2.831
20.84	10.02
21.06	1.026
21.28	3.862
21.5	8.908
21.72	5.878
21.94	0.806
22.16	7.64
22.38	4.709
22.6	8.595
22.82	3.37
23.04	50.323
23.26	5.065
23.48	8.248
23.7	16.317
23.92	1.548
24.14	6.512
24.36	7.725
24.58	12.903
24.8	7.168
25.02	4.363
25.24	4.329
25.46	4.369
25.68	2.336
25.9	4.154
26.12	11.024
26.34	12.399
26.56	222.338
26.78	5.573
27	7.328
27.22	3.742
27.44	2.127
27.66	1.567
27.88	3.978
28.1	5.325
28.32	4.673
28.54	15.929
28.76	11.048
28.98	6.701
29.2	46.006
29.42	2497.12
29.64	92.481
29.86	11.89
30.08	13.168
30.3	0.521
30.52	1.088
30.74	2.29
30.96	4.19
31.18	3.672
31.4	12.977
31.62	10.582
31.84	1.211
32.06	1.823
32.28	0.027
32.5	3.359
32.72	1.33
32.94	3.947
33.16	3.027
33.38	1.481
33.6	0.712
33.82	2.969
34.04	4.742
34.26	0.616
34.48	1.463
34.7	0.343
34.92	2.238
35.14	2.094
35.36	3.962
35.58	5.915
35.8	10.598
36.02	77.634
36.24	7.685
36.46	3.862
36.68	2.934
36.9	4.135
37.12	6.422
37.34	2.82
37.56	0.011
37.78	0.963
38	2.921
38.22	1.86
38.44	2.773
38.66	1.527
38.88	8.254
39.1	6.176
39.32	34
39.54	100.881
39.76	14.803
39.98	2.705
40.2	7.895
40.42	3.101
40.64	3.245
40.86	7.269
41.08	1.389
41.3	0.515
41.52	5.286
41.74	3.179
41.96	7.893
42.18	2.566
42.4	1.432
42.62	10.056
42.84	2.027
43.06	5.89
43.28	74.074
43.5	10.028
43.72	5.001
43.94	9.291
44.16	1.423
44.38	2.721
44.6	1.125
44.82	2.183
45.04	7.308
45.26	2.382
45.48	6.528
45.7	1.905
45.92	5.295
46.14	8.606
46.36	5.672
46.58	7.822
46.8	3.527
47.02	7.585
47.24	27.816
47.46	70.007
47.68	182.162
47.9	6.517
48.12	2.574
48.34	13.242
48.56	124.01
48.78	4.835
49	1.118
49.22	4.883
49.44	0.044
49.66	2.003
49.88	7.829
50.1	5.586
50.32	5.181
50.54	1.404
50.76	3.985
50.98	3.101
51.2	5.183
51.42	4.081
51.64	1.864
51.86	0.041
52.08	5.065
52.3	6.136
52.52	4.263
52.74	6.328
52.96	1.263
53.18	5.167
53.4	5.194
53.62	0.417
53.84	2.665
54.06	3.751
54.28	1.837
54.5	4.773
54.72	3.822
54.94	4.953
55.16	2.941
55.38	2.74
55.6	4.499
55.82	3.265
56.04	4.776
56.26	3.254
56.48	6.761
56.7	2.483
56.92	8.268
57.14	9.017
57.36	20.621
57.58	34.683
57.8	10.942
58.02	0.171
58.24	3.269
58.46	3.578
58.68	6.971
58.9	1.282
59.12	7.121
59.34	4.293
59.56	5.433
59.78	2.519
60	2.306
60.22	3.064
60.44	5.851
60.66	40.828
60.88	31.765
61.1	11.444
61.32	22.996
61.54	7.997
61.76	4.08
61.98	7.109
62.2	6.146
62.42	1.349
62.64	0.378
62.86	3.018
63.08	16.103
63.3	9.142
63.52	4.05
63.74	5.759
63.96	1.659
64.18	5.532
64.4	4.396
64.62	33.268
64.84	39.947
65.06	8.806
65.28	1.662
65.5	7.618
65.72	15.723
65.94	11.055
66.16	2.314
66.38	6.64
66.6	2.827
66.82	3.171
67.04	4.407
67.26	2.633
67.48	1.89
67.7	0.221
67.92	5.799
68.14	4.667
68.36	2.373
68.58	2.327
68.8	4.179
69.02	4.133
69.24	10.955
69.46	0.889
69.68	7.815
69.9	1.035
70.12	10.112
70.34	6.253
70.56	9.336
70.78	0.536
71	0.553
71.22	3.531
71.44	6.428
71.66	1.338
71.88	1.772
72.1	5.002
72.32	2.601
72.54	0.422
72.76	4.268
72.98	16.204
73.2	10.366
73.42	6.354
73.64	2.731
73.86	6.044
74.08	2.218
74.3	1.391
74.52	2.552
74.74	6.758
74.96	7.807
75.18	3.862
75.4	0.202
75.62	0.401
75.84	3.636
76.06	2.311
76.28	5.06
76.5	5.039
76.72	0.938
76.94	1.026
77.16	12.211
77.38	5.34
77.6	0.492
77.82	3.627
78.04	2.609
78.26	7.573
78.48	4.695
78.7	0.767
78.92	0.116
79.14	4.889
79.36	2.045
79.58	1.832
79.8	1.813
80.02	6.641
80.24	3.611
80.46	2.509
80.68	1.397
80.9	1.264
81.12	3.241
81.34	3.112
81.56	12.995
81.78	15.94
82	0.053
82.22	1.174
82.44	5.112
82.66	0.047
82.88	1.046
83.1	3.098
83.32	4.146
83.54	6.055
83.76	13.043
83.98	6.074
84.2	7.968
84.42	2.876
84.64	1.149
84.86	16.132
85.08	10.413
85.3	0.671
85.52	3.717
85.74	3.956
85.96	4.09
86.18	1.251
86.4	5.522
86.62	7.742
86.84	3.857
87.06	4.82
87.28	6.703
87.5	3.503
87.72	3.622
87.94	3.674
88.16	3.649
88.38	3.681
88.6	0.291
88.82	2.617
89.04	1.513
89.26	4.629
89.48	0.58
89.7	2.604
89.92	3.83
