Measurement: Powder, Xray Data XY Processed
Mineral: Calcite
Rruff sample: R040170
Ideal chemistry: CaCO_3_
Locality: Peramea, Lerida Province, Catalonia, Spain
Source: University of Arizona Mineral Museum
Description: Pink fragment
Diffraction sample description: Powder
Measured chemistry: (Ca_0.99_Mg_0.01_)CO_3_; trace amounts of Co
Cell parameters: a: 4.98284(9) b: 4.98284(9) c: 17.0984(6) alpha: 90. beta: 90. gamma: 120. volume: 367.65(2) crystal system: hexagonal
x	intensity
5	0
5.22	13.033
5.44	14.1837
5.66	7.42702
5.88	6.95353
6.1	9.03097
6.32	9.35451
6.54	17.013
6.76	4.06955
6.98	17.6407
7.2	6.34121
7.42	1.8159
7.64	7.33676
7.86	3.93725
8.08	2.61563
8.3	0.162284
8.52	3.84503
8.74	5.08447
8.96	4.6474
9.18	8.9601
9.4	7.04666
9.62	8.05631
9.84	5.45391
10.06	14.6883
10.28	3.36211
10.5	10.3331
10.72	12.4563
10.94	7.76678
11.16	7.88282
11.38	1.0021
11.6	3.12145
11.82	7.29484
12.04	3.26053
12.26	7.20051
12.48	5.4178
12.7	7.99392
12.92	0.985015
13.14	10.9426
13.36	3.21573
13.58	2.49489
13.8	10.7629
14.02	4.71333
14.24	2.95621
14.46	7.10166
14.68	2.23696
14.9	9.23502
15.12	6.34206
15.34	6.51362
15.56	4.59226
15.78	2.5597
16	9.66541
16.22	4.69875
16.44	5.69687
16.66	9.77284
16.88	1.02195
17.1	6.29677
17.32	0.312807
17.54	7.38896
17.76	10.2674
17.98	4.29404
18.2	5.17572
18.42	0.095232
18.64	3.98371
18.86	1.034
19.08	1.96351
19.3	6.89372
19.52	7.0211
19.74	1.21709
19.96	4.25401
20.18	2.27577
20.4	2.40826
20.62	3.53921
20.84	7.48564
21.06	5.5261
21.28	2.38908
21.5	4.37138
21.72	5.29602
21.94	5.09434
22.16	7.91418
22.38	3.82759
22.6	4.91308
22.82	5.76989
23.04	46.7617
23.26	12.8192
23.48	8.83579
23.7	5.91895
23.92	4.04194
24.14	2.11015
24.36	4.25125
24.58	6.33418
24.8	0.284727
25.02	3.21413
25.24	0.784441
25.46	2.0494
25.68	1.0542
25.9	3.11064
26.12	0.930164
26.34	0.051636
26.56	16.7391
26.78	10.023
27	4.26832
27.22	6.18864
27.44	4.74057
27.66	0.707332
27.88	2.79514
28.1	7.06429
28.32	2.26776
28.54	4.64955
28.76	16.9653
28.98	8.34023
29.2	53.6417
29.42	1276.38
29.64	85.2247
29.86	30.2982
30.08	4.73166
30.3	0.055761
30.52	6.70812
30.74	1.33829
30.96	5.87559
31.18	2.63803
31.4	20.1891
31.62	2.53472
31.84	0.085101
32.06	2.40109
32.28	0.355847
32.5	5.02147
32.72	3.2742
32.94	7.25941
33.16	10.3714
33.38	5.59655
33.6	8.48704
33.82	5.56886
34.04	4.60123
34.26	5.27792
34.48	1.06615
34.7	5.94869
34.92	2.65426
35.14	3.57654
35.36	4.50322
35.58	8.43411
35.8	14.4527
36.02	86.6575
36.24	22.8189
36.46	8.81946
36.68	10.9913
36.9	6.01997
37.12	0.975027
37.34	4.12835
37.56	2.10908
37.78	2.99803
38	2.81723
38.22	7.48672
38.44	9.95253
38.66	5.69474
38.88	3.37941
39.1	1.21328
39.32	20.1055
39.54	94.1313
39.76	19.4187
39.98	8.51784
40.2	2.07487
40.42	0.026545
40.64	1.48146
40.86	4.89571
41.08	6.97968
41.3	11
41.52	3.83097
41.74	4.66791
41.96	7.38733
42.18	10.7925
42.4	8.44718
42.62	7.99861
42.84	6.81845
43.06	7.28895
43.28	107.103
43.5	21.1433
43.72	4.212
43.94	9.34659
44.16	3.81061
44.38	3.0683
44.6	1.38547
44.82	3.0135
45.04	7.36613
45.26	5.52292
45.48	3.36774
45.7	1.77085
45.92	6.13112
46.14	9.34469
46.36	1.50003
46.58	3.27608
46.8	2.24363
47.02	12.3919
47.24	47.9794
47.46	177.052
47.68	24.2928
47.9	8.98897
48.12	4.9997
48.34	20.4915
48.56	110.428
48.78	18.4255
49	4.29187
49.22	0.753881
49.44	9.29484
49.66	1.4908
49.88	3.41454
50.1	5.22894
50.32	5.93337
50.54	7.70342
50.76	2.92405
50.98	6.04281
51.2	7.01447
51.42	4.26617
51.64	4.45208
51.86	4.47235
52.08	3.47881
52.3	0.635769
52.52	6.75826
52.74	0.904397
52.96	3.04688
53.18	3.07553
53.4	0.725581
53.62	7.41786
53.84	3.69805
54.06	4.66501
54.28	4.52963
54.5	3.74447
54.72	2.61084
54.94	7.28019
55.16	3.2162
55.38	1.9561
55.6	7.55879
55.82	5.00045
56.04	0.366189
56.26	4.79942
56.48	3.37185
56.7	21.9776
56.92	11.4572
57.14	3.18376
57.36	7.99356
57.58	34.1802
57.8	12.341
58.02	7.74084
58.24	5.17534
58.46	5.7911
58.68	5.16812
58.9	5.09769
59.12	5.50966
59.34	8.80505
59.56	8.00049
59.78	2.1011
60	2.79897
60.22	1.73342
60.44	1.49305
60.66	17.3155
60.88	29.0037
61.1	18.0156
61.32	21.6161
61.54	5.6186
61.76	1.6166
61.98	2.61577
62.2	2.64101
62.42	2.80019
62.64	0.008199
62.86	5.07794
63.08	4.1835
63.3	6.18154
63.52	4.12574
63.74	7.99675
63.96	0.777448
64.18	1.32337
64.4	2.38525
64.62	9.54229
64.84	18.4348
65.06	6.23071
65.28	10.4426
65.5	23.435
65.72	12.4116
65.94	1.69579
66.16	4.86287
66.38	5.04973
66.6	0.278431
66.82	1.52578
67.04	0.862948
67.26	1.02291
67.48	2.06608
67.7	5.2162
67.92	3.26181
68.14	5.05366
68.36	7.04079
68.58	8.15141
68.8	1.24554
69.02	9.17487
69.24	15.1152
69.46	5.95065
69.68	5.17396
69.9	2.52342
70.12	3.30311
70.34	7.36059
70.56	7.48005
70.78	1.48815
71	8.42916
71.22	4.26236
71.44	4.25466
71.66	4.18603
71.88	3.04094
72.1	1.25833
72.32	2.64255
72.54	4.58757
72.76	4.38371
72.98	15.3759
73.2	12.5728
73.42	0.546779
73.64	1.6714
73.86	4.84179
74.08	6.10915
74.3	1.18793
74.52	1.28986
74.74	3.23539
74.96	3.21373
75.18	7.16358
75.4	2.01868
75.62	1.25654
75.84	4.63244
76.06	2.48188
76.28	8.22709
76.5	6.1872
76.72	8.18359
76.94	5.06389
77.16	16.1306
77.38	9.45274
77.6	3.65901
77.82	2.90107
78.04	3.10417
78.26	3.35003
78.48	2.50689
78.7	2.69997
78.92	1.67104
79.14	4.81145
79.36	1.79313
79.58	6.90953
79.8	5.87675
80.02	7.86638
80.24	3.71986
80.46	0.601004
80.68	5.45512
80.9	1.38267
81.12	10.3215
81.34	11.2824
81.56	18.1018
81.78	9.36767
82	10.2158
82.22	1.22382
82.44	3.13749
82.66	1.07752
82.88	10.0103
83.1	1.8992
83.32	2.80474
83.54	1.70332
83.76	8.64482
83.98	7.43519
84.2	7.23077
84.42	4.23435
84.64	6.36558
84.86	15.5489
85.08	1.68935
85.3	2.83833
85.52	0.039551
85.74	6.27248
85.96	5.46096
86.18	1.7531
86.4	6.94766
86.62	5.1364
86.84	0.242383
87.06	3.12307
87.28	0.182657
87.5	3.29075
87.72	1.41286
87.94	5.47547
88.16	9.59945
88.38	2.56886
88.6	3.78445
88.82	0.863219
89.04	0.890802
89.26	4.03762
89.48	1.2468
89.7	6.33383
89.92	5.6726
