Measurement: Powder, Xray Data XY Processed
Mineral: Dravite
Rruff sample: R050077
Ideal chemistry: NaMg_3_Al_6_(Si_6_O_18_)(BO_3_)_3_(OH)_3_OH
Locality: Yinnietharra Station, Western Australia, Australia
Source: Rock Currier
Description: Dark brown euhedral prismatic single crystal
Diffraction sample description: Powder
Measured chemistry: (Na_0.783_Ca_0.217_)(Mg_0.771_Fe^2+^_0.221_Ti^4+^_0.008_)_3_(Al_0.956_Mg_0.044_)_6_(BO_3_)_3_[Si_6_O_18_]((OH)_0.914_F_0.086_)_4_
Cell parameters: a: 15.9483(6) b: 15.9483(6) c: 7.1936(4) alpha: 90. beta: 90. gamma: 120. volume: 1584.57(9) crystal system: hexagonal
x	intensity
5	0
5.22	11.957
5.44	14.948
5.66	15.978
5.88	22.439
6.1	18.254
6.32	11.439
6.54	19.512
6.76	16.989
6.98	5.758
7.2	3.774
7.42	0.973
7.64	15.202
7.86	6.511
8.08	6.969
8.3	10.786
8.52	16.164
8.74	11.266
8.96	8.134
9.18	1.86
9.4	9.073
9.62	9.208
9.84	9.467
10.06	2.622
10.28	7.952
10.5	13.352
10.72	12.202
10.94	11.751
11.16	23.955
11.38	11.072
11.6	2.924
11.82	11.116
12.04	6.395
12.26	1.259
12.48	5.373
12.7	13.002
12.92	11.407
13.14	7.962
13.36	8.362
13.58	15.529
13.8	21.412
14.02	30.614
14.24	0.924
14.46	15.95
14.68	3.109
14.9	8.498
15.12	5.713
15.34	12.122
15.56	9.522
15.78	7.609
16	4.73
16.22	9.869
16.44	1.094
16.66	7.898
16.88	4.87
17.1	10.21
17.32	0.703
17.54	8.767
17.76	26.926
17.98	22.744
18.2	11.827
18.42	8.908
18.64	3.341
18.86	5.142
19.08	8.717
19.3	68.844
19.52	19.036
19.74	10.37
19.96	6.328
20.18	10.91
20.4	17.784
20.62	21.803
20.84	14.938
21.06	268.385
21.28	10.649
21.5	15.19
21.72	11.476
21.94	11.085
22.16	11.987
22.38	218.692
22.6	8.926
22.82	11.803
23.04	17.565
23.26	6.679
23.48	5.943
23.7	8.4
23.92	7.656
24.14	2.512
24.36	9.366
24.58	3.172
24.8	12.385
25.02	0.835
25.24	6.721
25.46	22.986
25.68	248.55
25.9	21.705
26.12	5.686
26.34	29.492
26.56	16.682
26.78	8.896
27	6.035
27.22	20.49
27.44	4.122
27.66	5.221
27.88	9.634
28.1	7.985
28.32	8.832
28.54	9.808
28.76	30.354
28.98	8.849
29.2	7.543
29.42	8.598
29.64	79.41
29.86	10.393
30.08	23.619
30.3	95.992
30.52	18.13
30.74	3.129
30.96	17.461
31.18	7.963
31.4	12.617
31.62	11.123
31.84	3.161
32.06	7.058
32.28	19.631
32.5	18.491
32.72	5.229
32.94	10.858
33.16	7.678
33.38	2.869
33.6	10.27
33.82	2.51
34.04	6.093
34.26	7.542
34.48	7.724
34.7	16.985
34.92	119.771
35.14	14.948
35.36	10.111
35.58	5.092
35.8	12.704
36.02	3.85
36.24	13.791
36.46	4.702
36.68	5.933
36.9	15.521
37.12	5.991
37.34	3.045
37.56	43.828
37.78	17.566
38	27.632
38.22	19.364
38.44	27.473
38.66	3.007
38.88	5.776
39.1	6.07
39.32	2.524
39.54	6.363
39.76	15.896
39.98	8.872
40.2	10.218
40.42	2.562
40.64	7.774
40.86	16.596
41.08	6.695
41.3	20.045
41.52	3.764
41.74	44.232
41.96	8.037
42.18	6.92
42.4	11.971
42.62	100.361
42.84	20.483
43.06	3.416
43.28	5.933
43.5	15.023
43.72	4.948
43.94	8.21
44.16	77.723
44.38	265.475
44.6	13.264
44.82	31.387
45.04	0.601
45.26	0.25
45.48	15.038
45.7	9.151
45.92	2.315
46.14	0.228
46.36	8.341
46.58	2.079
46.8	10.694
47.02	11.563
47.24	31.582
47.46	95.091
47.68	14.988
47.9	11.618
48.12	15.512
48.34	0.11
48.56	16.619
48.78	3.677
49	12.583
49.22	50.813
49.44	16.33
49.66	5.395
49.88	14.124
50.1	18.276
50.32	2.519
50.54	4.135
50.76	8.971
50.98	9.649
51.2	19.738
51.42	4.926
51.64	7.662
51.86	7.414
52.08	8.49
52.3	0.395
52.52	8.074
52.74	10.15
52.96	5.492
53.18	12.14
53.4	11.018
53.62	15.373
53.84	17.064
54.06	15.534
54.28	17.467
54.5	7.262
54.72	8.314
54.94	12.794
55.16	14.099
55.38	32.773
55.6	13.012
55.82	11.643
56.04	6.543
56.26	9.926
56.48	10.293
56.7	29.372
56.92	13.389
57.14	2.285
57.36	4.51
57.58	14.655
57.8	126.473
58.02	22.169
58.24	6.362
58.46	11.39
58.68	2.643
58.9	9.411
59.12	3.324
59.34	5.171
59.56	14.9
59.78	11.45
60	9.315
60.22	3.257
60.44	28.182
60.66	18.205
60.88	1.938
61.1	8.571
61.32	6.572
61.54	44.618
61.76	23.712
61.98	3.48
62.2	17.635
62.42	11.335
62.64	2.38
62.86	14.41
63.08	3.297
63.3	0.933
63.52	4.654
63.74	13.234
63.96	73.131
64.18	38.416
64.4	3.305
64.62	10.423
64.84	1.558
65.06	3.501
65.28	17.511
65.5	7.625
65.72	13.101
65.94	21.336
66.16	2.79
66.38	39.423
66.6	14.96
66.82	4.455
67.04	14.001
67.26	1.973
67.48	11.465
67.7	1.487
67.92	10.495
68.14	6.223
68.36	12.734
68.58	10.565
68.8	7.931
69.02	5.787
69.24	245.345
69.46	58.233
69.68	10.155
69.9	8.882
70.12	5.905
70.34	5.62
70.56	5.006
70.78	29.269
71	28.908
71.22	19.999
71.44	1.18
71.66	4.217
71.88	1.848
72.1	28.723
72.32	5.633
72.54	3.616
72.76	6.998
72.98	5.696
73.2	6.667
73.42	3.792
73.64	1.637
73.86	8.031
74.08	0.118
74.3	56.533
74.52	24.131
74.74	12.773
74.96	15.071
75.18	10.524
75.4	1.209
75.62	14.305
75.84	4.455
76.06	8.802
76.28	15.255
76.5	6.167
76.72	25.833
76.94	6.954
77.16	7.765
77.38	4.301
77.6	4.567
77.82	17.203
78.04	8.34
78.26	1.425
78.48	6.581
78.7	37.491
78.92	16.34
79.14	9.397
79.36	14.508
79.58	12.636
79.8	8.138
80.02	2.372
80.24	3.649
80.46	1.584
80.68	0.328
80.9	18.012
81.12	5.211
81.34	9.614
81.56	9.666
81.78	3.82
82	12.831
82.22	8.863
82.44	15.794
82.66	1.372
82.88	5.483
83.1	3.955
83.32	10.698
83.54	10.518
83.76	4.545
83.98	12.735
84.2	20.554
84.42	30.531
84.64	14.614
84.86	0.988
85.08	14.234
85.3	7.487
85.52	16.389
85.74	6.246
85.96	3.553
86.18	7.659
86.4	12.409
86.62	3.439
86.84	12.541
87.06	18.349
87.28	8.382
87.5	9.7
87.72	3.982
87.94	5.308
88.16	5.243
88.38	16.302
88.6	8.091
88.82	13.039
89.04	9.277
89.26	12.682
89.48	15.093
89.7	18.136
89.92	11.992
