Measurement: Powder, Xray Data XY Processed
Mineral: Dravite
Rruff sample: R060280
Ideal chemistry: NaMg_3_Al_6_(Si_6_O_18_)(BO_3_)_3_(OH)_3_OH
Locality: near Merelani, Tanzania
Source: Herb Obodda
Description: Green fragment
Diffraction sample description: Powder
Measured chemistry: (Na_0.45_Ca_0.40_[box]_0.15_)(Mg_0.89_Al_0.07_Ti_0.04_)_3_Al_6_(BO_3_)_3_(Si_0.93_B_0.07_)_6_O_18_((OH)_0.95_O_0.05_)_4_
Cell parameters: a: 15.9270(4) b: 15.9270(4) c: 7.1978(4) alpha: 90 beta: 90 gamma: 120 volume: 1581.26(9) crystal system: hexagonal
x	intensity
5	0
5.22	16.334
5.44	4.045
5.66	6.073
5.88	5.425
6.1	4.983
6.32	12.505
6.54	0.117
6.76	0.022
6.98	15.283
7.2	10.946
7.42	3.76
7.64	12.258
7.86	11.323
8.08	0.465
8.3	2.772
8.52	0.479
8.74	5.218
8.96	1.132
9.18	10.873
9.4	8.791
9.62	9.051
9.84	5.708
10.06	0.315
10.28	3.7
10.5	9.95
10.72	4.958
10.94	3.998
11.16	6.314
11.38	9.545
11.6	1.488
11.82	7.135
12.04	5.195
12.26	0.04
12.48	5.733
12.7	5.021
12.92	1.835
13.14	10.043
13.36	7.29
13.58	3.447
13.8	9.454
14.02	52.853
14.24	5.33
14.46	5.483
14.68	3.955
14.9	0.103
15.12	5.41
15.34	2.765
15.56	8.451
15.78	6.812
16	3.22
16.22	13.713
16.44	0.692
16.66	4.865
16.88	4.875
17.1	0.28
17.32	0.212
17.54	5.028
17.76	2.122
17.98	35.018
18.2	0.173
18.42	6.514
18.64	1.099
18.86	5.337
19.08	8.422
19.3	8.622
19.52	10.584
19.74	2.901
19.96	1.632
20.18	0.605
20.4	5.23
20.62	3.407
20.84	2.481
21.06	20.519
21.28	10.819
21.5	2.725
21.72	0.645
21.94	1.801
22.16	2.807
22.38	53.252
22.6	11.726
22.82	6.109
23.04	6.229
23.26	3.309
23.48	1.368
23.7	2.483
23.92	5.638
24.14	5.657
24.36	1.53
24.58	2.235
24.8	3.737
25.02	3.485
25.24	2.044
25.46	13.755
25.68	156.612
25.9	11.655
26.12	0.528
26.34	3.75
26.56	17.871
26.78	2.124
27	0.628
27.22	0.069
27.44	1.162
27.66	1.409
27.88	1.447
28.1	6.64
28.32	3.563
28.54	4.559
28.76	6.198
28.98	0.192
29.2	2.402
29.42	3.934
29.64	0.614
29.86	22.954
30.08	7.762
30.3	224.753
30.52	10.978
30.74	1.053
30.96	25.208
31.18	1.918
31.4	6.61
31.62	1.072
31.84	3.507
32.06	8.646
32.28	4.113
32.5	0.567
32.72	1.674
32.94	4.521
33.16	1.206
33.38	4.883
33.6	4.374
33.82	4.844
34.04	5.623
34.26	15.316
34.48	3.451
34.7	7.364
34.92	217.523
35.14	12.328
35.36	3.321
35.58	0.449
35.8	0.39
36.02	4.015
36.24	7.296
36.46	0.242
36.68	3.115
36.9	2.765
37.12	0.963
37.34	3.975
37.56	11.843
37.78	10.75
38	28.067
38.22	0.051
38.44	10.864
38.66	22.982
38.88	7.515
39.1	5.009
39.32	7.407
39.54	4.928
39.76	5.208
39.98	8.621
40.2	3.459
40.42	1.185
40.64	0.231
40.86	1.8
41.08	1.608
41.3	20.264
41.52	3.898
41.74	4.486
41.96	17.026
42.18	5.124
42.4	2.922
42.62	25.769
42.84	5.599
43.06	2.575
43.28	6.618
43.5	0.475
43.72	0.27
43.94	0.796
44.16	48.521
44.38	30.651
44.6	69.441
44.82	10.339
45.04	9.018
45.26	3.211
45.48	1.506
45.7	14.016
45.92	2.441
46.14	2.665
46.36	5.811
46.58	4.497
46.8	8.485
47.02	1.485
47.24	0.351
47.46	81.157
47.68	13.136
47.9	6.106
48.12	2.91
48.34	6.747
48.56	15.808
48.78	6.155
49	0.445
49.22	8.589
49.44	10.065
49.66	3.304
49.88	0.552
50.1	6.617
50.32	7.444
50.54	2.571
50.76	5.592
50.98	1.858
51.2	7.795
51.42	19.601
51.64	4.49
51.86	7.22
52.08	1.847
52.3	3.032
52.52	5.954
52.74	6.228
52.96	2.143
53.18	7.235
53.4	0.847
53.62	0.003
53.84	1.092
54.06	2.169
54.28	6.071
54.5	8.893
54.72	5.711
54.94	6.619
55.16	0.267
55.38	39.362
55.6	20.302
55.82	1.531
56.04	9.32
56.26	18.441
56.48	4.458
56.7	3.51
56.92	1.499
57.14	4.424
57.36	1.427
57.58	2.508
57.8	10.429
58.02	17.258
58.24	15.201
58.46	6.023
58.68	3.079
58.9	3.897
59.12	9.153
59.34	4.193
59.56	0.689
59.78	0.031
60	1.984
60.22	0.94
60.44	10.845
60.66	7.616
60.88	6.65
61.1	1.726
61.32	4.146
61.54	13.861
61.76	24.974
61.98	0.928
62.2	2.473
62.42	7.751
62.64	3.819
62.86	9.869
63.08	2.895
63.3	4.657
63.52	0.116
63.74	4.184
63.96	28.166
64.18	31.964
64.4	9.738
64.62	1.603
64.84	0.524
65.06	1.983
65.28	21.952
65.5	5.969
65.72	3.064
65.94	13.245
66.16	6.391
66.38	29.887
66.6	19.168
66.82	3.466
67.04	0.74
67.26	2.832
67.48	2.236
67.7	0.559
67.92	1.886
68.14	0.118
68.36	1.697
68.58	2.439
68.8	2.317
69.02	1.286
69.24	0.011
69.46	10.11
69.68	3.971
69.9	4.732
70.12	2.39
70.34	0.081
70.56	1.336
70.78	2.677
71	24.606
71.22	16.267
71.44	3.276
71.66	7.314
71.88	4.116
72.1	8.374
72.32	8.459
72.54	8.702
72.76	1.725
72.98	3.961
73.2	4.852
73.42	0.262
73.64	4.836
73.86	2.032
74.08	4.089
74.3	20.175
74.52	12.96
74.74	5.273
74.96	0.543
75.18	1.965
75.4	6.202
75.62	4.452
75.84	2.586
76.06	3.814
76.28	0.426
76.5	5.498
76.72	4.386
76.94	1.354
77.16	5.183
77.38	1.952
77.6	1.592
77.82	6.439
78.04	8.567
78.26	3.773
78.48	0.857
78.7	5.015
78.92	4.121
79.14	1.367
79.36	5.7
79.58	2.818
79.8	3.83
80.02	3.846
80.24	5.867
80.46	0.73
80.68	2.496
80.9	2.438
81.12	12.49
81.34	0.609
81.56	4.69
81.78	6.53
82	6.377
82.22	5.291
82.44	3.183
82.66	1.201
82.88	1.446
83.1	1.005
83.32	5.858
83.54	2.762
83.76	3.768
83.98	3.722
84.2	2.466
84.42	7.869
84.64	1.995
84.86	2.076
85.08	0.35
85.3	4.158
85.52	5.257
85.74	0.565
85.96	3.562
86.18	0.438
86.4	5.531
86.62	6.638
86.84	5.45
87.06	0.404
87.28	4.719
87.5	6.727
87.72	3.861
87.94	0.214
88.16	4.009
88.38	1.041
88.6	0.904
88.82	2.741
89.04	0.037
89.26	1.535
89.48	5.426
89.7	4.176
89.92	3.442
