Measurement: Powder, Xray Data XY Processed
Mineral: Dravite
Rruff sample: R040088
Ideal chemistry: NaMg_3_Al_6_(Si_6_O_18_)(BO_3_)_3_(OH)_3_OH
Locality: Yinnietharra Station, Pilbara, Western Australia, Australia
Source: University of Arizona Mineral Museum
Description: Brown short prismatic crystal
Diffraction sample description: Powder
Measured chemistry: (Na_0.88_Ca_0.06_[box]_0.06_)(Mg_0.88_Al_0.10_Ti_0.04_Fe_0.02_)_3_Al_6.00_(B_1_O_3_)_3_Si_6.00_O_18_((OH)_0.98_F_0.02_)_4_
Cell parameters: a: 15.9328(2) b: 15.9328(2) c: 7.1964(2) alpha: 90. beta: 90. gamma: 120. volume: 1582.09(5) crystal system: hexagonal
x	intensity
5	0
5.22	9.221
5.44	5.933
5.66	15.453
5.88	13.369
6.1	19.112
6.32	1.277
6.54	7.881
6.76	11.163
6.98	2.85
7.2	26.063
7.42	15.755
7.64	12.352
7.86	12.611
8.08	8.976
8.3	1.404
8.52	10.146
8.74	2.505
8.96	4.846
9.18	5.285
9.4	11.7
9.62	11.062
9.84	8.041
10.06	4.175
10.28	6.308
10.5	8.24
10.72	5.12
10.94	8.286
11.16	6.191
11.38	4.224
11.6	1.683
11.82	0.3
12.04	0.029
12.26	12.704
12.48	10.491
12.7	1.707
12.92	1.163
13.14	0.068
13.36	9.989
13.58	15.962
13.8	82.965
14.02	11.081
14.24	3.519
14.46	7.828
14.68	3.281
14.9	6.771
15.12	2.282
15.34	9.634
15.56	6.847
15.78	0.714
16	12.814
16.22	3.172
16.44	3.164
16.66	10.976
16.88	11.949
17.1	11.841
17.32	8.082
17.54	9.036
17.76	109.067
17.98	21.773
18.2	5.428
18.42	0.824
18.64	4.267
18.86	4.992
19.08	12.555
19.3	126.175
19.52	8.477
19.74	13.708
19.96	15.069
20.18	5.423
20.4	6.628
20.62	1.834
20.84	8.508
21.06	268.88
21.28	18.806
21.5	5.886
21.72	8.345
21.94	5.4
22.16	23.524
22.38	169.71
22.6	10.879
22.82	13.563
23.04	16.19
23.26	7.97
23.48	4.325
23.7	3.122
23.92	17.14
24.14	15.456
24.36	16.234
24.58	1.098
24.8	7.659
25.02	2.193
25.24	2.876
25.46	54.86
25.68	75.179
25.9	12.695
26.12	13.021
26.34	85.03
26.56	3.382
26.78	16.268
27	13.478
27.22	7.989
27.44	15.119
27.66	6.205
27.88	13.945
28.1	2.346
28.32	6.85
28.54	10.238
28.76	25.599
28.98	4.741
29.2	2.525
29.42	14.2
29.64	87.044
29.86	39.862
30.08	130.851
30.3	85.313
30.52	12.019
30.74	19.82
30.96	9.784
31.18	16.098
31.4	12.223
31.62	2.565
31.84	9.393
32.06	6.021
32.28	2.192
32.5	8.507
32.72	17.452
32.94	3.818
33.16	4.248
33.38	0.659
33.6	7.681
33.82	11.843
34.04	0.74
34.26	29.963
34.48	12.377
34.7	59.924
34.92	113.355
35.14	9.222
35.36	7.958
35.58	0.122
35.8	7.972
36.02	26.001
36.24	12.5
36.46	11.927
36.68	1.241
36.9	4.666
37.12	3.568
37.34	11.72
37.56	68.75
37.78	43.691
38	11.919
38.22	7.693
38.44	43.637
38.66	2.964
38.88	5.662
39.1	5.663
39.32	8.383
39.54	10.099
39.76	2.327
39.98	6.504
40.2	7.112
40.42	5.929
40.64	17.431
40.86	8.193
41.08	22.023
41.3	180.193
41.52	6.983
41.74	63.246
41.96	4.855
42.18	10.676
42.4	19.607
42.62	29.97
42.84	16.823
43.06	4.843
43.28	9.246
43.5	6.47
43.72	9.579
43.94	31.136
44.16	74.387
44.38	117.31
44.6	7.286
44.82	22.659
45.04	3.527
45.26	0.633
45.48	6.66
45.7	13.273
45.92	9.362
46.14	6.568
46.36	1.761
46.58	13.164
46.8	8.018
47.02	9.854
47.24	25.668
47.46	123.092
47.68	17.674
47.9	5.442
48.12	0.28
48.34	4.204
48.56	14.25
48.78	2.346
49	10.472
49.22	44.633
49.44	13.295
49.66	4.839
49.88	12.197
50.1	11.015
50.32	11.375
50.54	5.635
50.76	6.021
50.98	5.795
51.2	35.633
51.42	16.422
51.64	1.152
51.86	2.305
52.08	2.756
52.3	9.601
52.52	20.58
52.74	12.29
52.96	7.967
53.18	4.581
53.4	6.782
53.62	4.297
53.84	3.632
54.06	2.236
54.28	13.817
54.5	4.232
54.72	2.829
54.94	5.168
55.16	14.14
55.38	46.721
55.6	9.832
55.82	12.53
56.04	17.447
56.26	8.683
56.48	14.017
56.7	7.191
56.92	0.96
57.14	10.132
57.36	10.178
57.58	12.309
57.8	64.36
58.02	27.269
58.24	7.118
58.46	4.924
58.68	4.458
58.9	0.165
59.12	13.102
59.34	1.179
59.56	4.515
59.78	26.558
60	7.06
60.22	4.777
60.44	9.559
60.66	13.921
60.88	6.285
61.1	3.192
61.32	12.428
61.54	42.389
61.76	14.468
61.98	2.924
62.2	5.359
62.42	7.505
62.64	30.526
62.86	16.386
63.08	6.193
63.3	3.628
63.52	7.772
63.74	11.841
63.96	48.957
64.18	18.868
64.4	15.63
64.62	0.155
64.84	1.846
65.06	26.274
65.28	24.586
65.5	2.075
65.72	2.713
65.94	5.975
66.16	12.743
66.38	34.091
66.6	15.575
66.82	11.461
67.04	3.762
67.26	8.997
67.48	2.232
67.7	7.025
67.92	5.276
68.14	9.862
68.36	4.75
68.58	11.98
68.8	8.181
69.02	4.967
69.24	17.279
69.46	32.563
69.68	6.453
69.9	0.708
70.12	3.49
70.34	10.784
70.56	7.119
70.78	9.803
71	17.477
71.22	1.403
71.44	3.353
71.66	1.495
71.88	11.357
72.1	34.678
72.32	27.838
72.54	8.805
72.76	10.372
72.98	4.027
73.2	4.98
73.42	2.899
73.64	5.832
73.86	10.828
74.08	4.919
74.3	106.75
74.52	59.729
74.74	6.967
74.96	7.32
75.18	2.308
75.4	13.601
75.62	6.852
75.84	0.834
76.06	1.631
76.28	4.547
76.5	6.369
76.72	16.325
76.94	7.424
77.16	9.168
77.38	8.445
77.6	3.039
77.82	6.248
78.04	1.746
78.26	5.971
78.48	9.144
78.7	9.116
78.92	11.275
79.14	9.425
79.36	5.175
79.58	9.597
79.8	6.644
80.02	11.827
80.24	0.326
80.46	6.391
80.68	5.221
80.9	4.387
81.12	14.5
81.34	5.052
81.56	10.533
81.78	4.674
82	3.671
82.22	6.757
82.44	0.752
82.66	3.249
82.88	1.744
83.1	17.633
83.32	7.528
83.54	0.052
83.76	7.69
83.98	4.555
84.2	9.61
84.42	8.599
84.64	6.706
84.86	9.228
85.08	6.188
85.3	1.229
85.52	10.461
85.74	3.712
85.96	1.461
86.18	30.166
86.4	11.132
86.62	5.041
86.84	6.407
87.06	5.413
87.28	8.281
87.5	5.419
87.72	10.704
87.94	10.763
88.16	3.598
88.38	10.339
88.6	14.113
88.82	7.029
89.04	12.697
89.26	0.924
89.48	22.524
89.7	11.326
89.92	11.483
