Measurement: Powder, Xray Data XY Processed
Mineral: Elbaite
Rruff sample: R050487
Ideal chemistry: Na(Al_1.5_Li_1.5_)Al_6_(Si_6_O_18_)(BO_3_)_3_(OH)_3_OH
Locality: White Queen mine, Pala, San Diego County, California, USA
Source: California Institute of Technology
Description: Mass of blue acicular crystals
Diffraction sample description: Powder
Measured chemistry: (Na_0.86_[box]_0.13_Ca_0.01_)(Al_0.42_Li_0.38_Fe^2+^_0.18_Mn_0.02_)_3_Al_6_(BO_3_)_3_Si_6_O_18_((OH)_0.85_F_0.15_)_4_
Cell parameters: a: 15.8993(6) b: 15.8993(6) c: 7.1233(3) alpha: 90. beta: 90. gamma: 120. volume: 1559.4(1) crystal system: hexagonal
x	intensity
5	0
5.22	20.73
5.44	15.062
5.66	0.42
5.88	5.609
6.1	13.039
6.32	3.891
6.54	4.965
6.76	0.216
6.98	13.227
7.2	14.996
7.42	3.791
7.64	0.613
7.86	0.363
8.08	5.135
8.3	0.892
8.52	4.561
8.74	8.332
8.96	0.219
9.18	0.419
9.4	0.894
9.62	16.744
9.84	13.079
10.06	14.986
10.28	15.331
10.5	14.852
10.72	4.001
10.94	1.925
11.16	18.002
11.38	6.495
11.6	0.695
11.82	9.001
12.04	0.545
12.26	5.453
12.48	0.56
12.7	10.428
12.92	10.724
13.14	8.201
13.36	14.975
13.58	1.191
13.8	14.111
14.02	220.323
14.24	15.425
14.46	9.598
14.68	10.711
14.9	2.694
15.12	6.249
15.34	0.774
15.56	4.965
15.78	11.539
16	17.797
16.22	2.609
16.44	7.001
16.66	9.077
16.88	0.029
17.1	10.477
17.32	7.427
17.54	8.225
17.76	14.968
17.98	78.398
18.2	24.427
18.42	6.016
18.64	0.238
18.86	10.532
19.08	13.869
19.3	25.769
19.52	11.574
19.74	5.356
19.96	1.075
20.18	21.401
20.4	7.379
20.62	4.335
20.84	12.045
21.06	58.685
21.28	36.536
21.5	1.094
21.72	5.659
21.94	0.443
22.16	10.574
22.38	293.578
22.6	9.041
22.82	5.018
23.04	13.298
23.26	18.134
23.48	1.015
23.7	5.694
23.92	13.18
24.14	5.908
24.36	4.596
24.58	9.253
24.8	7.518
25.02	2.887
25.24	0.064
25.46	9.729
25.68	16.819
25.9	222.096
26.12	16.671
26.34	20.603
26.56	43.458
26.78	13.66
27	20.42
27.22	16.302
27.44	24.03
27.66	0.27
27.88	1.827
28.1	18.983
28.32	16.739
28.54	2.955
28.76	26.151
28.98	0.225
29.2	1.097
29.42	0.538
29.64	4.286
29.86	12.269
30.08	12.625
30.3	24.546
30.52	181.6
30.74	2.86
30.96	29.222
31.18	1.548
31.4	1.031
31.62	9.003
31.84	0.084
32.06	5.432
32.28	6.181
32.5	5.487
32.72	15.836
32.94	14.626
33.16	15.165
33.38	8.841
33.6	4.889
33.82	25.282
34.04	0.974
34.26	11.365
34.48	17.532
34.7	15.154
34.92	330.868
35.14	34.72
35.36	12.287
35.58	6.576
35.8	0.543
36.02	1.012
36.24	23.05
36.46	4.064
36.68	4.884
36.9	12.978
37.12	1.037
37.34	8.868
37.56	5.682
37.78	22.317
38	47.494
38.22	32.223
38.44	8.328
38.66	38.953
38.88	12.527
39.1	0.643
39.32	8.832
39.54	5.496
39.76	9.512
39.98	7.781
40.2	0.09
40.42	2.144
40.64	4.436
40.86	0.707
41.08	5.662
41.3	0.202
41.52	26.196
41.74	0.081
41.96	41.098
42.18	2.167
42.4	0.264
42.62	4.386
42.84	27.792
43.06	58.539
43.28	9.586
43.5	12.254
43.72	25.642
43.94	4.228
44.16	0.547
44.38	33.657
44.6	166.713
44.82	28.489
45.04	14.179
45.26	5.001
45.48	3.899
45.7	12.204
45.92	12.502
46.14	5.806
46.36	12.199
46.58	8.368
46.8	10.995
47.02	0.225
47.24	10.91
47.46	18.092
47.68	43.553
47.9	6.811
48.12	6.31
48.34	14.848
48.56	6.743
48.78	11.315
49	24.476
49.22	4.498
49.44	30.462
49.66	9.57
49.88	0.496
50.1	15.276
50.32	9.982
50.54	9.185
50.76	0.633
50.98	11.711
51.2	9.183
51.42	8.266
51.64	6.624
51.86	20.678
52.08	5.102
52.3	0.55
52.52	11.522
52.74	1.234
52.96	0.876
53.18	8.878
53.4	4.303
53.62	8.847
53.84	0.509
54.06	10.685
54.28	4.112
54.5	21.928
54.72	14.604
54.94	1.286
55.16	0.831
55.38	3.105
55.6	10.161
55.82	43.253
56.04	5.998
56.26	25.148
56.48	7.653
56.7	6.802
56.92	8.791
57.14	0.901
57.36	1.405
57.58	6.443
57.8	10.476
58.02	32.05
58.24	16.114
58.46	19.485
58.68	5.24
58.9	7.481
59.12	0.509
59.34	11.219
59.56	7.171
59.78	3.175
60	23.569
60.22	9.713
60.44	4.021
60.66	12.244
60.88	23.073
61.1	1.079
61.32	3.915
61.54	17.135
61.76	11.123
61.98	11.961
62.2	35.137
62.42	3.773
62.64	16.853
62.86	2.405
63.08	0.217
63.3	9.75
63.52	8.444
63.74	6.455
63.96	0.206
64.18	10.321
64.4	41.74
64.62	47.391
64.84	12.812
65.06	1.792
65.28	13.64
65.5	2.314
65.72	3.265
65.94	23.283
66.16	22.803
66.38	0.766
66.6	12.035
66.82	56.213
67.04	11.519
67.26	0.606
67.48	0.372
67.7	1.862
67.92	6.683
68.14	12.449
68.36	21.752
68.58	9.227
68.8	2.214
69.02	8.404
69.24	0.415
69.46	23.295
69.68	15.523
69.9	0.105
70.12	0.943
70.34	11.342
70.56	11.417
70.78	0.908
71	11.181
71.22	1.284
71.44	8.793
71.66	31.328
71.88	4.924
72.1	0.06
72.32	15.8
72.54	22.376
72.76	6.791
72.98	0.361
73.2	1.313
73.42	0.137
73.64	11.492
73.86	11.896
74.08	8.174
74.3	6.302
74.52	17.406
74.74	10.993
74.96	23.011
75.18	14.386
75.4	6.904
75.62	0.472
75.84	0.686
76.06	7.118
76.28	0.388
76.5	4.575
76.72	2.034
76.94	0.242
77.16	11.467
77.38	7.196
77.6	10.733
77.82	5.231
78.04	4.972
78.26	16.54
78.48	13.806
78.7	9.353
78.92	14.623
79.14	2.145
79.36	4.31
79.58	1.89
79.8	0.966
80.02	5.991
80.24	1.028
80.46	1.192
80.68	1.826
80.9	10.936
81.12	0.794
81.34	6.297
81.56	2.693
81.78	0.128
82	19.854
82.22	3.346
82.44	0.175
82.66	5.301
82.88	10.369
83.1	17.912
83.32	0.42
83.54	1.092
83.76	4.601
83.98	0.392
84.2	18.56
84.42	5.212
84.64	24.152
84.86	6.81
85.08	0.74
85.3	17.828
85.52	10.581
85.74	8.725
85.96	8.661
86.18	16.098
86.4	0.046
86.62	0.474
86.84	18.702
87.06	0.293
87.28	0.208
87.5	0.22
87.72	0.629
87.94	15.609
88.16	0.002
88.38	0.666
88.6	0.547
88.82	3.403
89.04	6.707
89.26	16.976
89.48	5.557
89.7	3.716
89.92	2.735
