Measurement: Powder, Xray Data XY Processed
Mineral: Elbaite
Rruff sample: R060562
Ideal chemistry: Na(Al_1.5_Li_1.5_)Al_6_(Si_6_O_18_)(BO_3_)_3_(OH)_3_OH
Locality: unknown
Source: Gemological Institute of America
Description: Blue colored polished fragment
Diffraction sample description: Powder
Measured chemistry: (Na_0.68_Ca_0.20_[box]_0.12_)(Li_1.20_Al_1.12_Fe^2+^_0.50_Mn_0.18_)Al_6_(BO_3_)_3_[Si_6_O_18_]((OH)_0.80_F_0.20_)_4_
Cell parameters: a: 15.8800(8) b: 15.8800(8) c: 7.1185(5) alpha: 90. beta: 90. gamma: 120. volume: 1554.6(1) crystal system: hexagonal
x	intensity
5	0
5.22	5.58568
5.44	7.03116
5.66	10.4231
5.88	11.1937
6.1	15.8608
6.32	8.71624
6.54	10.4492
6.76	10.438
6.98	9.43026
7.2	12.9242
7.42	0.738979
7.64	7.00007
7.86	11.7064
8.08	0.247246
8.3	7.05091
8.52	1.45455
8.74	3.89425
8.96	17.9781
9.18	12.7251
9.4	13.2253
9.62	26.5968
9.84	4.84281
10.06	14.4231
10.28	18.1169
10.5	25.3274
10.72	20.0701
10.94	9.2234
11.16	32.6216
11.38	1.54387
11.6	12.4159
11.82	15.2764
12.04	16.9518
12.26	16.8802
12.48	16.7111
12.7	17.5194
12.92	15.9011
13.14	7.87986
13.36	14.1702
13.58	21.7155
13.8	29.6895
14.02	94.9733
14.24	18.8595
14.46	5.47804
14.68	22.1776
14.9	13.1086
15.12	5.47421
15.34	5.16048
15.56	13.9609
15.78	17.266
16	21.994
16.22	7.45128
16.44	22.1335
16.66	12.3987
16.88	25.5324
17.1	8.30358
17.32	21.9808
17.54	13.6929
17.76	0.153446
17.98	63.2921
18.2	9.10635
18.42	6.80445
18.64	25.6233
18.86	8.97369
19.08	12.2917
19.3	48.7171
19.52	23.1383
19.74	16.1172
19.96	25.9301
20.18	26.9016
20.4	11.8591
20.62	17.7893
20.84	16.3155
21.06	32.3198
21.28	23.4177
21.5	14.8279
21.72	1.91989
21.94	6.13601
22.16	15.8552
22.38	194.477
22.6	10.4314
22.82	7.93461
23.04	10.5295
23.26	20.7762
23.48	3.35147
23.7	19.9562
23.92	10.5059
24.14	11.7945
24.36	7.00299
24.58	18.3846
24.8	6.79564
25.02	16.3725
25.24	4.41926
25.46	12.093
25.68	20.9794
25.9	146.96
26.12	0.16357
26.34	8.77607
26.56	37.382
26.78	9.5238
27	10.615
27.22	9.33878
27.44	9.45432
27.66	7.20627
27.88	18.6485
28.1	14.749
28.32	12.8441
28.54	17.6665
28.76	5.10567
28.98	21.3529
29.2	4.18308
29.42	21.2583
29.64	29.3998
29.86	37.9098
30.08	14.3932
30.3	18.5435
30.52	157.885
30.74	13.4799
30.96	32.3143
31.18	10.5215
31.4	9.94373
31.62	9.82296
31.84	0.738472
32.06	14.8362
32.28	11.1017
32.5	5.77162
32.72	13.4043
32.94	18.3833
33.16	5.7467
33.38	22.582
33.6	13.2313
33.82	16.2306
34.04	6.55478
34.26	0.487045
34.48	18.5206
34.7	5.69868
34.92	72.2319
35.14	25.8668
35.36	12.9306
35.58	11.9466
35.8	2.14142
36.02	18.3129
36.24	3.20671
36.46	20.9781
36.68	7.49691
36.9	14.1306
37.12	11.2544
37.34	9.40977
37.56	15.1324
37.78	12.2043
38	41.8789
38.22	24.2362
38.44	4.49664
38.66	39.4561
38.88	20.4169
39.1	17.3999
39.32	22.7672
39.54	7.67822
39.76	26.623
39.98	2.94435
40.2	13.8299
40.42	9.4297
40.64	2.72857
40.86	9.63337
41.08	6.33433
41.3	12.6722
41.52	10.5971
41.74	5.22794
41.96	16.2163
42.18	1.23588
42.4	4.83735
42.62	15.8787
42.84	5.28041
43.06	39.5466
43.28	21.1657
43.5	2.65627
43.72	7.59375
43.94	0.100597
44.16	14.1701
44.38	17.7528
44.6	28.6554
44.82	24.199
45.04	13.5529
45.26	8.31536
45.48	3.72421
45.7	16.4772
45.92	3.6865
46.14	12.42
46.36	5.23014
46.58	7.713
46.8	26.0853
47.02	18.8784
47.24	6.95676
47.46	11.0973
47.68	46.152
47.9	15.0709
48.12	6.43596
48.34	10.9718
48.56	12.9698
48.78	12.2592
49	18.5809
49.22	12.0741
49.44	8.72402
49.66	0.584742
49.88	13.9454
50.1	12.4023
50.32	12.2662
50.54	16.495
50.76	6.8374
50.98	7.84799
51.2	3.28411
51.42	19.6341
51.64	8.94201
51.86	18.0145
52.08	6.63356
52.3	6.43617
52.52	8.51028
52.74	0.274897
52.96	12.3854
53.18	7.48949
53.4	13.6177
53.62	12.05
53.84	12.9398
54.06	1.16889
54.28	19.0098
54.5	1.07476
54.72	16.0352
54.94	12.0892
55.16	8.95517
55.38	7.2834
55.6	10.1904
55.82	15.0861
56.04	6.97193
56.26	16.4136
56.48	1.64886
56.7	7.36748
56.92	9.49592
57.14	0.636448
57.36	0.967491
57.58	7.61918
57.8	6.10059
58.02	19.3107
58.24	5.58992
58.46	17.6618
58.68	20.2024
58.9	4.63804
59.12	9.93026
59.34	3.00424
59.56	0.101831
59.78	10.9231
60	11.5961
60.22	8.72612
60.44	13.2585
60.66	14.1
60.88	5.27262
61.1	13.3559
61.32	14.2637
61.54	1.35612
61.76	9.91777
61.98	23.4994
62.2	24.5635
62.42	1.40219
62.64	6.41258
62.86	20.0342
63.08	5.18468
63.3	9.09765
63.52	11.0692
63.74	5.20881
63.96	12.2035
64.18	11.7337
64.4	9.42664
64.62	18.5633
64.84	1.58702
65.06	5.4791
65.28	7.21108
65.5	23.9491
65.72	8.06138
65.94	11.178
66.16	14.6158
66.38	18.2975
66.6	6.16354
66.82	17.6929
67.04	19.7862
67.26	4.95243
67.48	8.19587
67.7	8.18063
67.92	11.2779
68.14	17.4236
68.36	7.47183
68.58	21.0167
68.8	5.01715
69.02	1.10242
69.24	6.21969
69.46	5.54011
69.68	10.6885
69.9	8.50534
70.12	11.3882
70.34	5.48008
70.56	7.36698
70.78	2.3081
71	3.46962
71.22	8.70431
71.44	11.7052
71.66	9.55594
71.88	11.1885
72.1	0.187786
72.32	0.629286
72.54	5.01175
72.76	11.9086
72.98	8.40568
73.2	1.53217
73.42	7.76979
73.64	6.57947
73.86	12.6458
74.08	8.71023
74.3	9.67533
74.52	3.05403
74.74	7.85708
74.96	5.75639
75.18	11.9478
75.4	17.6055
75.62	15.0243
75.84	1.15622
76.06	17.8904
76.28	9.3085
76.5	12.3603
76.72	9.37693
76.94	2.22796
77.16	7.55275
77.38	1.38367
77.6	21.2875
77.82	12.7014
78.04	10.4109
78.26	9.52288
78.48	16.7356
78.7	9.77956
78.92	8.06873
79.14	4.20548
79.36	4.34098
79.58	4.05927
79.8	9.22297
80.02	8.20259
80.24	1.03128
80.46	6.83734
80.68	12.1638
80.9	12.0021
81.12	1.60313
81.34	7.49615
81.56	0.474257
81.78	1.08789
82	10.873
82.22	5.77294
82.44	2.9042
82.66	13.7403
82.88	13.8246
83.1	7.3989
83.32	0.48987
83.54	4.45715
83.76	6.42963
83.98	7.62697
84.2	6.25809
84.42	8.3436
84.64	6.70786
84.86	20.0573
85.08	10.3718
85.3	0.423319
85.52	5.75044
85.74	11.7432
85.96	9.88463
86.18	5.11513
86.4	11.1684
86.62	9.94429
86.84	8.18289
87.06	13.7955
87.28	11.4146
87.5	2.29731
87.72	12.4612
87.94	8.42144
88.16	10.4515
88.38	11.8686
88.6	0.827805
88.82	5.59813
89.04	3.62556
89.26	6.93314
89.48	15.0345
89.7	11.4446
89.92	6.36902
