Measurement: Powder, Xray Data XY Processed
Mineral: Elbaite
Rruff sample: R070077
Ideal chemistry: Na(Al_1.5_Li_1.5_)Al_6_(Si_6_O_18_)(BO_3_)_3_(OH)_3_OH
Locality: Canary mine, Lundazi area of eastern Zambia
Source: Tommy Wu
Description: Green crystal fragments
Diffraction sample description: Powder
Cell parameters: a: 15.9206(3) b: 15.9206(3) c: 7.1294(1) alpha: 90 beta: 90 gamma: 120 volume: 1564.96(5) crystal system: hexagonal
x	intensity
5	0
5.22	22.9374
5.44	5.69419
5.66	10.4129
5.88	10.2561
6.1	1.43051
6.32	1.19806
6.54	9.14545
6.76	5.37141
6.98	8.43718
7.2	4.92703
7.42	4.04847
7.64	11.498
7.86	7.01952
8.08	6.22197
8.3	3.61171
8.52	2.42636
8.74	17.0311
8.96	15.1343
9.18	10.2622
9.4	22.3616
9.62	8.12342
9.84	6.21634
10.06	15.3498
10.28	3.96626
10.5	8.14453
10.72	8.05738
10.94	5.06375
11.16	27.5477
11.38	12.9318
11.6	0.954292
11.82	7.05341
12.04	1.40388
12.26	13.2257
12.48	11.3576
12.7	3.34446
12.92	6.22257
13.14	10.0885
13.36	13.5956
13.58	12.8469
13.8	19.8569
14.02	333.978
14.24	11.7868
14.46	2.59701
14.68	9.8221
14.9	2.46874
15.12	5.96868
15.34	1.26101
15.56	13.3332
15.78	9.29629
16	10.4838
16.22	5.578
16.44	1.50325
16.66	1.43793
16.88	5.29227
17.1	7.16262
17.32	13.3571
17.54	15.8303
17.76	4.559
17.98	34.4031
18.2	5.82303
18.42	13.8316
18.64	8.92236
18.86	3.91834
19.08	25.7844
19.3	82.008
19.52	3.44167
19.74	7.96858
19.96	9.69676
20.18	4.44593
20.4	8.39823
20.62	1.34905
20.84	12.363
21.06	71.101
21.28	32.8249
21.5	13.0429
21.72	5.86129
21.94	5.54514
22.16	13.6524
22.38	238.017
22.6	17.3
22.82	11.7565
23.04	3.40219
23.26	15.8695
23.48	7.14106
23.7	9.33128
23.92	4.15703
24.14	2.39397
24.36	16.9194
24.58	3.72092
24.8	14.297
25.02	9.05642
25.24	18.4456
25.46	9.41084
25.68	34.0096
25.9	314.065
26.12	5.02572
26.34	17.2456
26.56	24.0443
26.78	7.78653
27	2.90236
27.22	3.54544
27.44	7.39511
27.66	6.25045
27.88	9.9303
28.1	3.19944
28.32	11.3538
28.54	9.00154
28.76	51.2846
28.98	2.64494
29.2	2.86589
29.42	11.5765
29.64	23.5196
29.86	10.2326
30.08	1.02855
30.3	50.1902
30.52	38.9574
30.74	8.27626
30.96	25.8189
31.18	2.54175
31.4	12.1591
31.62	1.10129
31.84	10.7894
32.06	10.9957
32.28	10.9337
32.5	12.2368
32.72	14.7427
32.94	3.80014
33.16	21.5128
33.38	7.02285
33.6	9.7589
33.82	11.1608
34.04	0.560986
34.26	5.02789
34.48	57.381
34.7	16.3647
34.92	172.801
35.14	29.5157
35.36	5.12816
35.58	13.9344
35.8	8.37695
36.02	13.3431
36.24	29.5515
36.46	16.7509
36.68	14.915
36.9	14.6605
37.12	9.13392
37.34	20.6421
37.56	5.51448
37.78	16.9992
38	96.3513
38.22	14.9504
38.44	52.8562
38.66	7.07383
38.88	2.20487
39.1	1.20745
39.32	2.1785
39.54	16.4523
39.76	1.28546
39.98	8.69553
40.2	3.73965
40.42	5.70523
40.64	0.484596
40.86	9.27112
41.08	7.08229
41.3	7.12442
41.52	38.1452
41.74	8.10277
41.96	15.6406
42.18	3.71393
42.4	13.1059
42.62	1.69828
42.84	144.785
43.06	34.6244
43.28	12.5789
43.5	14.4267
43.72	4.20756
43.94	1.09031
44.16	11.5034
44.38	181.365
44.6	55.6184
44.82	13.0291
45.04	17.2095
45.26	6.53741
45.48	10.0307
45.7	5.71053
45.92	19.7861
46.14	14.4631
46.36	17.6769
46.58	17.5162
46.8	2.89561
47.02	1.87939
47.24	12.7232
47.46	49.2545
47.68	32.9925
47.9	23.899
48.12	8.81818
48.34	6.5361
48.56	1.44203
48.78	19.5341
49	13.6706
49.22	3.87138
49.44	11.1322
49.66	14.7427
49.88	20.9699
50.1	5.42232
50.32	10.8813
50.54	20.0875
50.76	10.208
50.98	7.3269
51.2	0.098577
51.42	9.07723
51.64	39.058
51.86	12.9388
52.08	8.58454
52.3	2.53378
52.52	11.7279
52.74	11.7585
52.96	15.1013
53.18	11.1641
53.4	0.965721
53.62	15.7141
53.84	6.38809
54.06	9.65778
54.28	11.5838
54.5	10.5118
54.72	5.45772
54.94	6.03266
55.16	7.47613
55.38	0.300671
55.6	208.386
55.82	24.3388
56.04	34.8374
56.26	20.4043
56.48	0.022289
56.7	10.8659
56.92	0.749014
57.14	9.64709
57.36	4.39285
57.58	22.525
57.8	20.6846
58.02	20.4509
58.24	57.563
58.46	17.6024
58.68	1.65751
58.9	15.9352
59.12	3.71964
59.34	10.9386
59.56	14.251
59.78	7.29636
60	19.6885
60.22	13.4896
60.44	5.44326
60.66	6.26005
60.88	9.02311
61.1	12.8236
61.32	6.68335
61.54	2.23884
61.76	2.18082
61.98	97.0894
62.2	13.1366
62.42	14.8629
62.64	12.4162
62.86	11.4298
63.08	7.41282
63.3	23.4025
63.52	5.59152
63.74	1.65972
63.96	6.80323
64.18	8.88126
64.4	154.968
64.62	45.9444
64.84	4.73575
65.06	4.24162
65.28	9.98868
65.5	2.92685
65.72	12.2106
65.94	24.243
66.16	0.579165
66.38	8.76481
66.6	13.057
66.82	27.6683
67.04	11.1753
67.26	10.5864
67.48	9.10431
67.7	2.98043
67.92	3.01108
68.14	13.3468
68.36	7.51308
68.58	11.6825
68.8	3.8201
69.02	18.7909
69.24	21.7201
69.46	19.4263
69.68	0.524529
69.9	1.03877
70.12	9.63422
70.34	18.5673
70.56	14.0394
70.78	10.6051
71	8.00337
71.22	30.8145
71.44	19.1482
71.66	8.74761
71.88	7.80035
72.1	25.6613
72.32	12.0743
72.54	6.21144
72.76	13.3981
72.98	8.13455
73.2	6.70995
73.42	5.77233
73.64	13.9669
73.86	12.902
74.08	14.0817
74.3	8.47311
74.52	8.47494
74.74	6.11846
74.96	58.8802
75.18	34.4023
75.4	6.37118
75.62	3.75827
75.84	25.9541
76.06	13.2059
76.28	1.40344
76.5	5.0549
76.72	3.78388
76.94	10.8204
77.16	28.0206
77.38	6.02044
77.6	7.76617
77.82	10.2954
78.04	15.2278
78.26	4.19387
78.48	3.14479
78.7	6.25691
78.92	10.1382
79.14	13.081
79.36	34.309
79.58	9.13317
79.8	9.10866
80.02	7.12876
80.24	1.77346
80.46	12.0687
80.68	10.1599
80.9	13.5164
81.12	22.8251
81.34	1.04164
81.56	15.9866
81.78	11.8544
82	1.88016
82.22	15.2181
82.44	6.33255
82.66	9.51159
82.88	11.777
83.1	0.83449
83.32	7.47045
83.54	5.0047
83.76	9.57746
83.98	7.49566
84.2	0.599525
84.42	15.0919
84.64	5.27875
84.86	7.30729
85.08	3.33941
85.3	2.1371
85.52	13.3058
85.74	1.51007
85.96	5.68464
86.18	6.949
86.4	5.76699
86.62	12.8484
86.84	9.03129
87.06	12.0934
87.28	2.08685
87.5	3.91637
87.72	11.7575
87.94	0.914484
88.16	9.1793
88.38	12.1158
88.6	10.0877
88.82	2.34113
89.04	1.4238
89.26	3.97988
89.48	12.8786
89.7	15.2994
89.92	10.9451
