Measurement: Powder, Xray Data XY Processed
Mineral: Enstatite
Rruff sample: R040094
Ideal chemistry: MgSiO_3_
Locality: unknown
Source: University of Arizona Mineral Museum
Description: Dark green massive, associated with anthophyllite
Diffraction sample description: Powder, mixed with anthophyllite (cell parameters 18.525(2), 18.000(4), 5.284(2))
Measured chemistry: (Mg_0.84_Fe_0.15_)(Si_0.99_Al_0.01_)O_3_; = Enstatite :  [box](Mg_0.83_Fe_0.14_Na_0.01_Ca_0.01_)_7_(Si_0.99_Al_0.01_)_8_O_22_(OH)_2_ = Anthophyllite
Cell parameters: a: 18.2462(8) b: 8.8429(3) c: 5.1902(2) alpha: 90. beta: 90. gamma: 90. volume: 837.45(5) crystal system: orthorhombic
x	intensity
5	0
5.22	19.47
5.44	20.343
5.66	11.809
5.88	12.949
6.1	13.879
6.32	14.121
6.54	8.872
6.76	24.317
6.98	22.678
7.2	3.039
7.42	4.599
7.64	0.888
7.86	0.747
8.08	14.045
8.3	5.638
8.52	22.576
8.74	6.359
8.96	1.544
9.18	16.712
9.4	14.906
9.62	6.471
9.84	60.88
10.06	14.783
10.28	8.194
10.5	30.714
10.72	76.646
10.94	11.683
11.16	14.81
11.38	7.004
11.6	0.573
11.82	0.907
12.04	16.561
12.26	21.772
12.48	23.092
12.7	8.396
12.92	4.947
13.14	6.494
13.36	8.786
13.58	11.685
13.8	24.752
14.02	17.614
14.24	18.445
14.46	9.523
14.68	8.783
14.9	16.946
15.12	25.757
15.34	17.431
15.56	2.359
15.78	14.484
16	17.931
16.22	16.318
16.44	21.768
16.66	12.949
16.88	5.759
17.1	10.435
17.32	11.468
17.54	21.04
17.76	16.206
17.98	31.034
18.2	9.196
18.42	2.193
18.64	8.158
18.86	25.411
19.08	18.5
19.3	2.416
19.52	31.929
19.74	50.689
19.96	31.051
20.18	25.493
20.4	3.651
20.62	20.988
20.84	17.948
21.06	10.771
21.28	16.385
21.5	4.21
21.72	11.113
21.94	11.254
22.16	29.369
22.38	3.145
22.6	6.207
22.82	7.443
23.04	14.598
23.26	4.799
23.48	9.775
23.7	2.758
23.92	8.983
24.14	15.031
24.36	5.993
24.58	31.19
24.8	13.638
25.02	6.723
25.24	16.914
25.46	4.117
25.68	21.559
25.9	20.479
26.12	24.534
26.34	3.73
26.56	15.659
26.78	0.598
27	18.438
27.22	9.01
27.44	10.721
27.66	326.235
27.88	22.395
28.1	271.201
28.32	127.085
28.54	12.238
28.76	15.225
28.98	13.534
29.2	18.48
29.42	189.681
29.64	15.732
29.86	2.139
30.08	17.541
30.3	18.9
30.52	15.042
30.74	7.305
30.96	18.678
31.18	225.209
31.4	16.444
31.62	57.823
31.84	19.945
32.06	7.445
32.28	7.745
32.5	5.299
32.72	30.435
32.94	24.394
33.16	60.464
33.38	6.908
33.6	8.926
33.82	5.496
34.04	14.392
34.26	13.382
34.48	12.18
34.7	2.899
34.92	3.509
35.14	9.162
35.36	67.211
35.58	21.453
35.8	23.946
36.02	38.125
36.24	33.925
36.46	39.507
36.68	3.92
36.9	8.949
37.12	10.856
37.34	10.661
37.56	12.109
37.78	12.575
38	9.803
38.22	11.617
38.44	6.424
38.66	15.281
38.88	26.426
39.1	21.384
39.32	16.731
39.54	17.09
39.76	9.102
39.98	21.004
40.2	14.477
40.42	15.348
40.64	22.727
40.86	7.849
41.08	9.728
41.3	23.522
41.52	34.19
41.74	25.858
41.96	14.72
42.18	25.495
42.4	29.513
42.62	16.918
42.84	33.311
43.06	24.037
43.28	35.396
43.5	5.454
43.72	10.964
43.94	21.294
44.16	19.036
44.38	1.068
44.6	13.83
44.82	41.132
45.04	9.573
45.26	31.826
45.48	19.398
45.7	59.318
45.92	6.342
46.14	6.498
46.36	70.375
46.58	14.214
46.8	4.731
47.02	8.944
47.24	10.375
47.46	8.861
47.68	8.43
47.9	3.248
48.12	1.011
48.34	25.98
48.56	16.981
48.78	22.504
49	4.403
49.22	7.055
49.44	31.71
49.66	20.528
49.88	32.759
50.1	12.708
50.32	0.734
50.54	8.587
50.76	11.377
50.98	26.089
51.2	13.044
51.42	36.685
51.64	15.909
51.86	2.982
52.08	2.538
52.3	7.696
52.52	31.574
52.74	27.461
52.96	26.9
53.18	13.244
53.4	22.61
53.62	11.581
53.84	21.371
54.06	1.682
54.28	24.466
54.5	11.656
54.72	17.582
54.94	2.719
55.16	18.769
55.38	5.118
55.6	15.009
55.82	13.48
56.04	10.768
56.26	14.403
56.48	10.426
56.7	1.504
56.92	23.392
57.14	40.434
57.36	21.431
57.58	5.889
57.8	21.625
58.02	36.646
58.24	23.671
58.46	25.292
58.68	15.532
58.9	11.237
59.12	13.31
59.34	3.69
59.56	16.433
59.78	7.986
60	12.525
60.22	19.945
60.44	0.627
60.66	23.172
60.88	45.474
61.1	15.697
61.32	13.176
61.54	0.341
61.76	4.912
61.98	8.697
62.2	12.627
62.42	40.274
62.64	40.213
62.86	33.177
63.08	92.177
63.3	42.341
63.52	20.781
63.74	10.709
63.96	15.083
64.18	2.7
64.4	11.435
64.62	22.804
64.84	7.986
65.06	11.798
65.28	8.02
65.5	22.385
65.72	29.744
65.94	11.622
66.16	16.144
66.38	26.038
66.6	8.164
66.82	1.177
67.04	20.37
67.26	34.61
67.48	26.638
67.7	17.983
67.92	17.158
68.14	6.8
68.36	8.777
68.58	20.453
68.8	13.065
69.02	21.455
69.24	6.651
69.46	11.9
69.68	26.433
69.9	3.827
70.12	16.381
70.34	0.394
70.56	16.752
70.78	13.48
71	7.717
71.22	16.232
71.44	15.226
71.66	0.97
71.88	22.334
72.1	14.442
72.32	14.306
72.54	1.821
72.76	7.623
72.98	10.714
73.2	10.773
73.42	15.023
73.64	29.277
73.86	12.733
74.08	13.769
74.3	6.165
74.52	4.605
74.74	31.715
74.96	24.168
75.18	1.517
75.4	18.987
75.62	10.644
75.84	11.87
76.06	21.267
76.28	9.445
76.5	28.091
76.72	12.669
76.94	8.348
77.16	15.443
77.38	11.745
77.6	8.956
77.82	6.064
78.04	7.758
78.26	6.012
78.48	10.467
78.7	17.49
78.92	1.1
79.14	22.21
79.36	5.821
79.58	10.801
79.8	1.542
80.02	1.093
80.24	4.134
80.46	5.42
80.68	14.501
80.9	0.85
81.12	18.889
81.34	20.463
81.56	25.995
81.78	14.707
82	3.806
82.22	12.134
82.44	8.252
82.66	12.862
82.88	13.628
83.1	16.581
83.32	7.041
83.54	15.025
83.76	10.383
83.98	5.934
84.2	6.076
84.42	3.218
84.64	22.022
84.86	5.643
85.08	6.851
85.3	22.383
85.52	7.338
85.74	11.245
85.96	9.56
86.18	16.523
86.4	11.199
86.62	8.228
86.84	0.632
87.06	5.589
87.28	18.171
87.5	13.98
87.72	6.81
87.94	11
88.16	21.974
88.38	21.078
88.6	27.631
88.82	8.027
89.04	6.818
89.26	20.317
89.48	18.043
89.7	5.691
89.92	12.563
