Measurement: Powder, Xray Data XY Processed
Mineral: Enstatite
Rruff sample: R060630
Ideal chemistry: MgSiO_3_
Locality: unknown
Source: Gemological Institute of America
Description: Tan colored fragment
Diffraction sample description: Powder
Measured chemistry: (Mg_0.89_Fe_0.07_Al_0.04_)_Σ=1_(Si_0.96_Al_0.04_)_Σ=1_O_3_
Cell parameters: a: 18.2136(9) b: 8.7710(4) c: 5.1829(8) alpha: 90 beta: 90 gamma: 90 volume: 828.0(0) crystal system: orthorhombic
x	intensity
5	0
5.22	19.8988
5.44	3.93636
5.66	15.0506
5.88	7.5793
6.1	19.3276
6.32	4.63601
6.54	1.03474
6.76	10.7699
6.98	17.175
7.2	5.52957
7.42	7.12766
7.64	15.8457
7.86	6.49198
8.08	5.46112
8.3	10.585
8.52	10.3292
8.74	3.57408
8.96	5.21401
9.18	11.8127
9.4	8.13367
9.62	12.6513
9.84	8.17096
10.06	11.2935
10.28	3.41251
10.5	8.47729
10.72	8.23568
10.94	9.14477
11.16	10.0607
11.38	9.33717
11.6	4.31995
11.82	15.5317
12.04	1.3418
12.26	7.529
12.48	12.4964
12.7	8.49282
12.92	10.2415
13.14	5.10517
13.36	11.0618
13.58	13.4604
13.8	10.2474
14.02	24.1627
14.24	11.9597
14.46	22.0383
14.68	0.30987
14.9	6.71871
15.12	14.8812
15.34	5.84852
15.56	19.3421
15.78	14.4083
16	8.78682
16.22	4.6426
16.44	3.71958
16.66	5.36015
16.88	3.46663
17.1	1.45219
17.32	10.437
17.54	9.71507
17.76	14.0531
17.98	8.57206
18.2	11.4871
18.42	4.42277
18.64	8.75503
18.86	9.7706
19.08	7.98327
19.3	11.6776
19.52	10.6599
19.74	1.60074
19.96	5.14059
20.18	13.7153
20.4	14.628
20.62	9.61429
20.84	10.8169
21.06	10.2663
21.28	11.4159
21.5	7.53828
21.72	0.682568
21.94	3.80113
22.16	18.4003
22.38	8.73696
22.6	8.16619
22.82	5.21577
23.04	19.8492
23.26	7.90902
23.48	8.22288
23.7	9.87189
23.92	6.76626
24.14	9.74101
24.36	8.05672
24.58	7.8538
24.8	3.4184
25.02	2.96485
25.24	15.284
25.46	18.7924
25.68	17.3025
25.9	7.70755
26.12	6.29721
26.34	0.242985
26.56	9.6867
26.78	5.12151
27	9.38731
27.22	11.8283
27.44	0.616446
27.66	12.1867
27.88	14.7788
28.1	39.7876
28.32	336.826
28.54	35.2031
28.76	5.8792
28.98	13.9332
29.2	1.01672
29.42	6.02855
29.64	11.1388
29.86	16.9573
30.08	19.7903
30.3	17.6283
30.52	62.5578
30.74	5.15894
30.96	12.4709
31.18	547.358
31.4	29.6863
31.62	14.7543
31.84	21.4269
32.06	24.4792
32.28	6.65319
32.5	8.83935
32.72	0.952166
32.94	18.0933
33.16	19.5626
33.38	10.7991
33.6	8.7204
33.82	4.99729
34.04	4.01404
34.26	5.33465
34.48	9.1358
34.7	7.08849
34.92	8.96931
35.14	17.7618
35.36	4.80431
35.58	83.4328
35.8	27.5165
36.02	53.0865
36.24	25.9861
36.46	72.5362
36.68	11.9417
36.9	11.476
37.12	5.84426
37.34	10.0961
37.56	10.9228
37.78	29.4907
38	3.63502
38.22	5.62365
38.44	19.2957
38.66	9.86019
38.88	9.72386
39.1	11.5576
39.32	4.52716
39.54	2.59588
39.76	13.7254
39.98	12.1923
40.2	7.22468
40.42	9.31066
40.64	8.36813
40.86	9.8032
41.08	9.18934
41.3	9.92642
41.52	9.95243
41.74	11.5892
41.96	5.06156
42.18	12.7392
42.4	25.2396
42.62	3.78552
42.84	34.8385
43.06	27.5095
43.28	15.8028
43.5	23.3013
43.72	4.19949
43.94	9.15165
44.16	33.0613
44.38	8.42491
44.6	3.5005
44.82	24.503
45.04	13.3684
45.26	21.0827
45.48	9.3081
45.7	18.0306
45.92	30.4968
46.14	23.1814
46.36	13.5389
46.58	32.631
46.8	20.8679
47.02	12.1392
47.24	12.691
47.46	11.2358
47.68	9.80249
47.9	7.13445
48.12	6.03132
48.34	13.0097
48.56	8.85644
48.78	9.82691
49	5.6885
49.22	11.528
49.44	0.032064
49.66	0.100426
49.88	12.7192
50.1	6.07909
50.32	5.87025
50.54	6.9628
50.76	6.05753
50.98	0.116707
51.2	38.3148
51.42	15.0783
51.64	5.049
51.86	10.0039
52.08	0.954611
52.3	1.28832
52.52	2.44144
52.74	0.642719
52.96	4.87307
53.18	20.7082
53.4	17.5945
53.62	9.44964
53.84	8.25196
54.06	16.2577
54.28	7.11182
54.5	4.50616
54.72	23.6743
54.94	0.192982
55.16	4.9511
55.38	2.56284
55.6	2.73489
55.82	12.587
56.04	8.63202
56.26	15.9987
56.48	6.93671
56.7	4.71852
56.92	3.29826
57.14	6.29279
57.36	5.19202
57.58	20.3544
57.8	11.7928
58.02	6.77802
58.24	26.6535
58.46	14.6789
58.68	10.625
58.9	6.04409
59.12	3.37981
59.34	7.55262
59.56	7.59248
59.78	1.8918
60	11.7993
60.22	12.8471
60.44	1.6076
60.66	8.53475
60.88	11.7711
61.1	37.5262
61.32	18.117
61.54	5.90149
61.76	7.61591
61.98	0.313648
62.2	0.48951
62.42	12.5713
62.64	45.5938
62.86	37.9568
63.08	8.69885
63.3	9.95021
63.52	14.6794
63.74	28.4282
63.96	0.136412
64.18	0.459148
64.4	3.99203
64.62	7.75943
64.84	2.30003
65.06	2.62595
65.28	11.1627
65.5	8.19346
65.72	11.3289
65.94	5.57746
66.16	11.9485
66.38	8.18224
66.6	10.8427
66.82	16.4857
67.04	17.6608
67.26	5.66014
67.48	26.7323
67.7	15.2178
67.92	10.3774
68.14	6.89417
68.36	15.3673
68.58	12.5624
68.8	4.08553
69.02	9.88242
69.24	3.22604
69.46	9.53498
69.68	14.9885
69.9	4.70836
70.12	10.8626
70.34	8.1064
70.56	14.9653
70.78	9.40692
71	1.3798
71.22	1.07565
71.44	15.42
71.66	4.2154
71.88	0.924948
72.1	0.896996
72.32	5.52238
72.54	7.0665
72.76	16.9018
72.98	18.1381
73.2	15.5441
73.42	6.06917
73.64	2.57803
73.86	10.8797
74.08	8.13312
74.3	8.99688
74.52	4.75398
74.74	1.4365
74.96	2.51724
75.18	25.4523
75.4	27.3981
75.62	14.988
75.84	2.56478
76.06	15.128
76.28	7.93817
76.5	6.98114
76.72	5.08199
76.94	6.89037
77.16	7.81789
77.38	9.81487
77.6	17.4299
77.82	9.29295
78.04	6.20785
78.26	3.09675
78.48	6.19114
78.7	21.1872
78.92	9.19207
79.14	8.98052
79.36	11.912
79.58	6.82105
79.8	6.59301
80.02	4.1311
80.24	2.14821
80.46	3.10935
80.68	7.50846
80.9	4.80063
81.12	9.97052
81.34	7.91374
81.56	2.3853
81.78	8.68582
82	4.28075
82.22	9.66661
82.44	4.94741
82.66	8.98841
82.88	2.92053
83.1	8.54742
83.32	8.55313
83.54	11.646
83.76	10.7072
83.98	14.4579
84.2	10.3382
84.42	0.967848
84.64	3.81238
84.86	4.80458
85.08	8.9157
85.3	8.73307
85.52	8.91585
85.74	15.8213
85.96	18.0576
86.18	0.620388
86.4	13.581
86.62	4.06032
86.84	4.19827
87.06	13.2446
87.28	10.2624
87.5	15.6476
87.72	7.53846
87.94	2.52836
88.16	11.5472
88.38	5.47289
88.6	8.23209
88.82	19.9424
89.04	10.4958
89.26	5.30089
89.48	4.42127
89.7	7.23534
89.92	5.3669
