Measurement: Powder, Xray Data XY Processed
Mineral: Enstatite
Rruff sample: R070418
Ideal chemistry: MgSiO_3_
Locality: India
Source: Michael Scott
Description: Brown translucent fragments
Diffraction sample description: Powder
Measured chemistry: (Mg_0.86_Fe_0.14_)_Î£=1_Si_1.00_O_3_; trace amounts of Al, Ca, Mn
Cell parameters: a: 18.2539(4) b: 8.8441(2) c: 5.1920(2) alpha: 90 beta: 90 gamma: 90 volume: 838.20(3) crystal system: orthorhombic
x	intensity
5	0
5.22	7.23929
5.44	7.87654
5.66	8.0369
5.88	31.0333
6.1	36.4437
6.32	24.879
6.54	29.4433
6.76	24.6191
6.98	13.4768
7.2	3.48976
7.42	11.6664
7.64	19.4796
7.86	19.3997
8.08	6.8938
8.3	5.12462
8.52	18.579
8.74	16.1263
8.96	0.144672
9.18	23.3723
9.4	21.7404
9.62	10.1775
9.84	27.2995
10.06	10.8359
10.28	5.51279
10.5	19.5968
10.72	10.5118
10.94	12.5773
11.16	23.4572
11.38	0.404041
11.6	1.16087
11.82	20.678
12.04	3.41474
12.26	8.03427
12.48	13.8382
12.7	12.4897
12.92	17.7994
13.14	20.2289
13.36	16.6237
13.58	16.4563
13.8	30.0062
14.02	33.2952
14.24	7.36561
14.46	8.33289
14.68	15.6174
14.9	23.0811
15.12	17.0289
15.34	14.9298
15.56	9.01341
15.78	16.3339
16	15.335
16.22	9.11012
16.44	7.81203
16.66	1.23059
16.88	6.79783
17.1	10.6368
17.32	26.1375
17.54	12.4113
17.76	12.5077
17.98	15.5198
18.2	21.5639
18.42	2.51276
18.64	7.81827
18.86	14.0177
19.08	15.704
19.3	13.3911
19.52	25.0703
19.74	24.4818
19.96	9.35098
20.18	12.8316
20.4	8.61617
20.62	12.4092
20.84	17.0257
21.06	21.253
21.28	19.3018
21.5	2.81111
21.72	5.07247
21.94	27.6152
22.16	23.6155
22.38	9.53723
22.6	16.6858
22.82	4.15447
23.04	3.35317
23.26	17.304
23.48	1.28068
23.7	14.7704
23.92	8.4376
24.14	15.8204
24.36	18.4965
24.58	11.6646
24.8	24.3149
25.02	14.1228
25.24	10.7182
25.46	22.9298
25.68	14.0415
25.9	23.6739
26.12	12.5335
26.34	26.0515
26.56	24.2773
26.78	18.6057
27	51.7031
27.22	1.8945
27.44	5.96227
27.66	10.6451
27.88	30.9601
28.1	1189.39
28.32	148.363
28.54	42.5545
28.76	7.93652
28.98	7.48265
29.2	4.33548
29.42	16.4975
29.64	12.9994
29.86	2.64398
30.08	20.4198
30.3	60.2439
30.52	5.51324
30.74	4.11223
30.96	75.7379
31.18	465.849
31.4	18.5263
31.62	94.8133
31.84	9.07652
32.06	3.16046
32.28	1.9943
32.5	21.3902
32.72	36.4541
32.94	15.4586
33.16	55.6926
33.38	20.3352
33.6	19.5846
33.82	11.2746
34.04	3.32088
34.26	24.8577
34.48	1.24907
34.7	14.2039
34.92	14.9443
35.14	30.1413
35.36	213.085
35.58	13.914
35.8	31.7748
36.02	34.5478
36.24	34.933
36.46	24.0041
36.68	12.6201
36.9	6.72921
37.12	12.4138
37.34	4.37988
37.56	6.20689
37.78	24.8434
38	0.935719
38.22	16.313
38.44	9.30269
38.66	11.7102
38.88	1.103
39.1	16.1074
39.32	4.56022
39.54	18.5225
39.76	2.00972
39.98	17.6297
40.2	3.20944
40.42	7.74941
40.64	4.26307
40.86	5.36134
41.08	13.196
41.3	9.47858
41.52	19.0782
41.74	28.7067
41.96	0.039894
42.18	15.0256
42.4	13.7428
42.62	21.8701
42.84	49.3155
43.06	42.1274
43.28	28.1363
43.5	20.6348
43.72	11.8872
43.94	21.7798
44.16	24.9442
44.38	10.9632
44.6	29.9598
44.82	34.2427
45.04	24.9632
45.26	12.3069
45.48	10.6779
45.7	90.2997
45.92	17.268
46.14	20.0077
46.36	72.5418
46.58	35.4741
46.8	9.73323
47.02	2.60884
47.24	20.1338
47.46	29.182
47.68	19.9277
47.9	6.20016
48.12	9.9961
48.34	24.9667
48.56	22.1813
48.78	6.06288
49	24.6295
49.22	27.2097
49.44	19.0914
49.66	9.5572
49.88	8.79234
50.1	8.30164
50.32	10.8013
50.54	20.5125
50.76	1.29157
50.98	12.4704
51.2	50.7613
51.42	34.0865
51.64	9.9006
51.86	12.088
52.08	18.8127
52.3	18.146
52.52	15.0435
52.74	38.1453
52.96	17.0908
53.18	12.8395
53.4	11.2356
53.62	13.1395
53.84	20.9981
54.06	33.4545
54.28	8.64986
54.5	19.8219
54.72	21.2676
54.94	16.7095
55.16	25.173
55.38	0.43103
55.6	10.2419
55.82	23.0145
56.04	8.74202
56.26	2.48531
56.48	21.2077
56.7	4.59563
56.92	6.37891
57.14	21.1664
57.36	29.986
57.58	22.4973
57.8	29.7256
58.02	35.1877
58.24	28.9884
58.46	1.83396
58.68	15.8441
58.9	12.7888
59.12	5.25481
59.34	13.6405
59.56	27.9374
59.78	4.12742
60	19.2592
60.22	18.4317
60.44	15.3001
60.66	30.4795
60.88	89.6039
61.1	31.6084
61.32	17.7559
61.54	13.2757
61.76	12.8796
61.98	6.42593
62.2	9.32132
62.42	125.71
62.64	35.5733
62.86	14.9447
63.08	127.406
63.3	43.7882
63.52	17.5753
63.74	4.42989
63.96	2.65533
64.18	30.7665
64.4	5.37808
64.62	14.7793
64.84	4.72205
65.06	19.8632
65.28	9.47432
65.5	26.935
65.72	7.88609
65.94	27.9014
66.16	8.06351
66.38	21.8553
66.6	27.863
66.82	26.4319
67.04	15.6219
67.26	23.7433
67.48	37.4295
67.7	4.10005
67.92	17.1867
68.14	7.7248
68.36	14.6547
68.58	1.66181
68.8	24.3897
69.02	17.3335
69.24	18.8815
69.46	13.8455
69.68	9.726
69.9	7.98637
70.12	12.1815
70.34	24.4514
70.56	7.00127
70.78	20.6503
71	16.0778
71.22	4.76886
71.44	1.4528
71.66	10.8971
71.88	9.25584
72.1	29.3762
72.32	19.9703
72.54	1.43685
72.76	20.68
72.98	33.6081
73.2	4.97646
73.42	17.022
73.64	27.1086
73.86	15.7716
74.08	12.3467
74.3	1.40086
74.52	28.0858
74.74	33.2486
74.96	42.9252
75.18	8.81653
75.4	3.65515
75.62	0.063087
75.84	13.4182
76.06	15.2243
76.28	22.3489
76.5	25.4285
76.72	19.7436
76.94	7.21636
77.16	6.38151
77.38	23.9699
77.6	18.3698
77.82	12.9648
78.04	2.19875
78.26	13.5446
78.48	23.7229
78.7	27.6947
78.92	7.95315
79.14	25.5048
79.36	9.49727
79.58	14.471
79.8	8.351
80.02	5.96572
80.24	3.6461
80.46	10.3001
80.68	0.67149
80.9	15.4468
81.12	20.5548
81.34	0.407261
81.56	19.1651
81.78	19.0973
82	18.2147
82.22	10.4128
82.44	11.1091
82.66	22.4898
82.88	22.4355
83.1	19.5557
83.32	16.5129
83.54	12.7761
83.76	14.0021
83.98	13.1263
84.2	15.7729
84.42	23.1602
84.64	10.3262
84.86	17.3883
85.08	10.6247
85.3	15.6079
85.52	6.40286
85.74	3.12103
85.96	7.40818
86.18	24.3942
86.4	21.4438
86.62	17.5416
86.84	23.5071
87.06	19.1293
87.28	5.90506
87.5	2.8843
87.72	13.04
87.94	14.1421
88.16	0.094479
88.38	9.47168
88.6	20.6715
88.82	18.1141
89.04	24.3406
89.26	8.88257
89.48	21.4503
89.7	10.4229
89.92	0.773926
