Measurement: Powder, Xray Data XY Processed
Mineral: Epidote
Rruff sample: R050191
Ideal chemistry: Ca_2_Fe^3+^Al_2_(Si_2_O_7_)(SiO_4_)O(OH)
Locality: Pampa Blanca, Castrovirreyna Province, Huancavelica Department, Peru
Source: Dave Bunk Minerals
Description: Cluster of green elongated prismatic crystals
Diffraction sample description: Powder
Measured chemistry: Ca_2.00_Al_2.00_(Fe^3+^_0.84_Al_0.16_)(SiO_4_)(Si_2_O_7_)O(OH)
Cell parameters: a: 8.9012(8) b: 5.6374(1) c: 10.1643(9) alpha: 90. beta: 115.406(6) gamma: 90. volume: 460.72(4) crystal system: monoclinic
x	intensity
5	0
5.22	9.17137
5.44	12.9601
5.66	18.967
5.88	26.8849
6.1	20.9779
6.32	13.7347
6.54	25.6626
6.76	10.6878
6.98	16.523
7.2	20.9185
7.42	6.37041
7.64	4.93821
7.86	16.1479
8.08	10.4766
8.3	1.25747
8.52	13.7615
8.74	2.56447
8.96	19.562
9.18	0.200809
9.4	8.04382
9.62	14.866
9.84	27.7498
10.06	17.2834
10.28	7.69634
10.5	7.24306
10.72	4.21268
10.94	16.4061
11.16	15.79
11.38	8.5344
11.6	12.7948
11.82	13.8903
12.04	25.5145
12.26	15.4676
12.48	19.3676
12.7	16.7265
12.92	17.7103
13.14	18.5827
13.36	8.0888
13.58	4.62685
13.8	12.577
14.02	0.54784
14.24	16.3265
14.46	8.64537
14.68	13.4934
14.9	19.5925
15.12	24.9755
15.34	18.864
15.56	4.70038
15.78	11.1598
16	9.72263
16.22	22.719
16.44	20.3587
16.66	9.92066
16.88	3.91572
17.1	9.13368
17.32	16.7285
17.54	3.34766
17.76	30.8761
17.98	5.65091
18.2	18.0795
18.42	0.980431
18.64	17.0696
18.86	9.3802
19.08	5.365
19.3	35.3888
19.52	16.5358
19.74	8.15553
19.96	12.0988
20.18	9.83865
20.4	7.80831
20.62	12.0994
20.84	25.3176
21.06	6.68438
21.28	18.4611
21.5	13.96
21.72	3.12122
21.94	14.8631
22.16	81.3179
22.38	30.5254
22.6	10.5165
22.82	4.2481
23.04	5.97912
23.26	14.9401
23.48	17.8662
23.7	26.2446
23.92	10.9164
24.14	8.54825
24.36	5.33447
24.58	18.2236
24.8	26.0166
25.02	9.76841
25.24	20.7876
25.46	27.5673
25.68	28.9118
25.9	21.9093
26.12	37.7477
26.34	3.60992
26.56	8.10695
26.78	9.43457
27	3.70863
27.22	14.5157
27.44	23.5225
27.66	12.8782
27.88	42.0806
28.1	21.6683
28.32	5.69887
28.54	5.91274
28.76	23.719
28.98	15.0427
29.2	42.7167
29.42	27.1481
29.64	6.53734
29.86	2.85673
30.08	9.01461
30.3	12.1969
30.52	26.8866
30.74	44.718
30.96	24.7712
31.18	5.05992
31.4	0.40131
31.62	11.8349
31.84	83.25
32.06	32.6132
32.28	2.44859
32.5	6.1489
32.72	0.24287
32.94	3.92209
33.16	24.1102
33.38	134.055
33.6	30.6639
33.82	5.189
34.04	8.00717
34.26	14.6823
34.48	96.9074
34.7	12.0314
34.92	13.2577
35.14	27.0106
35.36	24.3408
35.58	20.3992
35.8	16.7011
36.02	8.53919
36.24	5.02928
36.46	2.0404
36.68	17.0948
36.9	6.9654
37.12	0.019958
37.34	35.7796
37.56	59.9536
37.78	6.50579
38	2.35293
38.22	8.73412
38.44	7.83759
38.66	10.1986
38.88	14.2531
39.1	96.4102
39.32	26.85
39.54	0.857475
39.76	11.9423
39.98	0.573338
40.2	9.67903
40.42	7.55843
40.64	23.0636
40.86	3.6803
41.08	4.35373
41.3	3.98352
41.52	15.5918
41.74	70.8851
41.96	14.5131
42.18	1.88687
42.4	5.87797
42.62	45.5941
42.84	63.4058
43.06	9.76061
43.28	27.8822
43.5	3.29355
43.72	33.5306
43.94	11.805
44.16	7.27815
44.38	23.9097
44.6	22.5878
44.82	14.81
45.04	13.5717
45.26	14.915
45.48	8.41431
45.7	24.4008
45.92	12.5908
46.14	8.66582
46.36	10.0812
46.58	19.8227
46.8	9.8923
47.02	13.9654
47.24	10.8972
47.46	14.4662
47.68	4.5392
47.9	3.03854
48.12	13.2846
48.34	38.9149
48.56	61.9725
48.78	31.864
49	24.5641
49.22	18.282
49.44	3.54816
49.66	9.97804
49.88	12.2637
50.1	12.6558
50.32	11.0835
50.54	18.8558
50.76	13.284
50.98	17.3279
51.2	13.6073
51.42	15.2875
51.64	0.701889
51.86	6.99002
52.08	21.5112
52.3	14.9795
52.52	0.399277
52.74	5.29303
52.96	5.4586
53.18	7.58472
53.4	2.84846
53.62	19.6678
53.84	5.75809
54.06	8.98898
54.28	17.9437
54.5	3.2096
54.72	16.2501
54.94	21.6311
55.16	1.53343
55.38	11.1004
55.6	7.84609
55.82	7.33964
56.04	34.3307
56.26	75.3591
56.48	56.373
56.7	2.10175
56.92	9.68485
57.14	6.96388
57.36	9.85933
57.58	5.02635
57.8	17.6597
58.02	13.9263
58.24	36.5919
58.46	26.6251
58.68	1.75582
58.9	8.33697
59.12	6.59626
59.34	1.97226
59.56	6.86354
59.78	11.5966
60	2.76505
60.22	10.6907
60.44	27.8345
60.66	21.0533
60.88	2.40689
61.1	6.08865
61.32	19.1476
61.54	15.6732
61.76	33.6917
61.98	24.1215
62.2	10.1079
62.42	17.1952
62.64	15.0488
62.86	11.8711
63.08	6.42944
63.3	3.55869
63.52	20.6257
63.74	14.3669
63.96	27.6543
64.18	24.8195
64.4	15.7504
64.62	19.9601
64.84	1.34632
65.06	11.4682
65.28	17.2325
65.5	11.005
65.72	32.6221
65.94	2.30217
66.16	19.9127
66.38	27.227
66.6	17.1582
66.82	9.98465
67.04	17.8645
67.26	19.122
67.48	4.73596
67.7	0.903191
67.92	0.871872
68.14	12.6928
68.36	8.49117
68.58	10.7929
68.8	8.01345
69.02	16.1005
69.24	8.96111
69.46	5.04709
69.68	19.086
69.9	14.0544
70.12	14.4561
70.34	14.3902
70.56	11.3928
70.78	6.17194
71	8.59273
71.22	22.6314
71.44	17.1202
71.66	9.38094
71.88	7.54655
72.1	16.6257
72.32	10.4167
72.54	1.58425
72.76	13.8837
72.98	23.8718
73.2	17.9205
73.42	13.7639
73.64	12.205
73.86	7.21442
74.08	1.61047
74.3	15.0627
74.52	4.58694
74.74	17.291
74.96	16.4306
75.18	7.49057
75.4	7.77216
75.62	0.726543
75.84	25.0457
76.06	10.7272
76.28	24.0841
76.5	17.9682
76.72	15.3803
76.94	13.0482
77.16	14.5913
77.38	23.3342
77.6	5.42351
77.82	7.64913
78.04	10.9446
78.26	14.9108
78.48	7.339
78.7	12.4919
78.92	13.5672
79.14	12.0755
79.36	14.0879
79.58	6.38823
79.8	21.1731
80.02	18.6115
80.24	15.5539
80.46	20.5694
80.68	9.84856
80.9	23.7251
81.12	9.01469
81.34	20.8911
81.56	3.59508
81.78	19.3869
82	10.5914
82.22	0.384636
82.44	27.0941
82.66	25.1444
82.88	14.5175
83.1	3.89764
83.32	6.3318
83.54	6.30909
83.76	21.134
83.98	13.9161
84.2	18.1983
84.42	18.7862
84.64	5.40969
84.86	11.3213
85.08	9.62569
85.3	6.08161
85.52	0.063507
85.74	12.8796
85.96	3.27147
86.18	3.54038
86.4	4.60092
86.62	6.4351
86.84	0.642811
87.06	20.4847
87.28	19.8911
87.5	5.23066
87.72	9.78773
87.94	13.8575
88.16	21.0095
88.38	19.995
88.6	18.7397
88.82	19.8704
89.04	18.892
89.26	1.12367
89.48	16.8337
89.7	21.217
89.92	4.59504
