Measurement: Powder, Xray Data XY Processed
Mineral: Epidote
Rruff sample: R050303
Ideal chemistry: Ca_2_Fe^3+^Al_2_(Si_2_O_7_)(SiO_4_)O(OH)
Locality: San Martin mine, Zacatecas, Mexico
Source: Eugene Schlepp
Description: Green elongated prismatic crystals
Diffraction sample description: Powder
Measured chemistry: Ca_2.00_Al_2.00_(Fe^3+^_0.97_Al_0.03_)(SiO_4_)(Si_2_O_7_)O(OH)
Cell parameters: a: 8.907(3) b: 5.6498(5) c: 10.176(3) alpha: 90 beta: 115.37(2) gamma: 90 volume: 462.7(0) crystal system: monoclinic
x	intensity
5	0
5.22	11.2122
5.44	2.09681
5.66	14.0992
5.88	16.4593
6.1	6.42401
6.32	4.0621
6.54	26.7275
6.76	19.4387
6.98	20.0485
7.2	11.1662
7.42	6.31175
7.64	11.4818
7.86	6.42204
8.08	5.54436
8.3	9.37752
8.52	2.69872
8.74	9.42688
8.96	15.7816
9.18	17.1531
9.4	12.1169
9.62	18.6676
9.84	5.6457
10.06	2.53531
10.28	18.7336
10.5	20.7309
10.72	13.5193
10.94	12.1959
11.16	16.9692
11.38	24.3276
11.6	10.816
11.82	16.7064
12.04	15.0168
12.26	22.8253
12.48	4.85968
12.7	11.6355
12.92	4.62476
13.14	1.61376
13.36	14.1092
13.58	2.60096
13.8	18.7796
14.02	13.6736
14.24	1.11833
14.46	12.5502
14.68	10.9107
14.9	19.0999
15.12	0.97176
15.34	3.97892
15.56	5.23126
15.78	11.7167
16	17.2771
16.22	23.1094
16.44	13.9739
16.66	10.9121
16.88	14.5696
17.1	16.4108
17.32	8.58955
17.54	30.9843
17.76	15.8036
17.98	1.50975
18.2	3.91383
18.42	12.3306
18.64	8.57328
18.86	1.28749
19.08	4.75966
19.3	21.5608
19.52	16.4516
19.74	16.664
19.96	20.6636
20.18	0.026775
20.4	3.85332
20.62	9.31306
20.84	20.3833
21.06	4.16022
21.28	4.08846
21.5	23.9441
21.72	3.72277
21.94	17.5362
22.16	54.9872
22.38	36.0021
22.6	23.3052
22.82	21.1399
23.04	28.0217
23.26	7.13578
23.48	19.5837
23.7	14.8829
23.92	11.6198
24.14	11.5378
24.36	14.2182
24.58	13.3165
24.8	10.2058
25.02	4.31373
25.24	13.1801
25.46	74.4017
25.68	34.9567
25.9	6.5426
26.12	16.4861
26.34	7.05397
26.56	3.04754
26.78	9.44088
27	18.4221
27.22	9.5977
27.44	17.1921
27.66	22.4174
27.88	24.9498
28.1	29.035
28.32	10.0711
28.54	18.8138
28.76	15.0185
28.98	19.73
29.2	25.6466
29.42	14.2095
29.64	6.35168
29.86	3.38047
30.08	5.48249
30.3	9.7299
30.52	35.9139
30.74	85.4944
30.96	36.056
31.18	10.1489
31.4	5.41291
31.62	32.5987
31.84	21.0492
32.06	28.216
32.28	4.37276
32.5	10.3825
32.72	6.19017
32.94	5.11194
33.16	24.9104
33.38	84.6063
33.6	48.9203
33.82	13.5639
34.04	8.17348
34.26	21.9876
34.48	72.2027
34.7	7.56833
34.92	8.48488
35.14	23.7237
35.36	36.2837
35.58	27.8562
35.8	23.8338
36.02	13.8911
36.24	0.044636
36.46	32.1613
36.68	13.322
36.9	10.4824
37.12	13.3706
37.34	84.4086
37.56	27.6816
37.78	39.7709
38	9.88414
38.22	10.6725
38.44	9.65223
38.66	12.0809
38.88	2.38788
39.1	44.5541
39.32	14.2236
39.54	4.88376
39.76	1.38907
39.98	4.66932
40.2	0.004993
40.42	11.6379
40.64	0.766754
40.86	3.78384
41.08	4.31366
41.3	3.03019
41.52	11.505
41.74	51.8145
41.96	9.41065
42.18	4.6732
42.4	11.2625
42.62	37.7579
42.84	38.4291
43.06	17.5074
43.28	24.7254
43.5	23.5938
43.72	30.5699
43.94	14.9187
44.16	20.3864
44.38	10.754
44.6	9.86113
44.82	16.3277
45.04	10.8718
45.26	13.785
45.48	8.07781
45.7	19.3884
45.92	2.68184
46.14	20.0446
46.36	22.0136
46.58	12.2166
46.8	9.44711
47.02	12.4256
47.24	14.0968
47.46	12.7048
47.68	1.17424
47.9	11.1882
48.12	2.8055
48.34	15.7392
48.56	45.6711
48.78	13.7933
49	4.18578
49.22	24.8904
49.44	10.0316
49.66	9.21879
49.88	7.05621
50.1	2.39484
50.32	2.70101
50.54	29.9933
50.76	5.88484
50.98	24.0187
51.2	26.2663
51.42	10.8077
51.64	26.9415
51.86	18.2312
52.08	8.78467
52.3	0.292545
52.52	10.6242
52.74	13.4369
52.96	0.004135
53.18	3.98637
53.4	4.08333
53.62	5.88431
53.84	20.3144
54.06	2.44889
54.28	30.4344
54.5	11.7104
54.72	14.0778
54.94	18.1753
55.16	14.497
55.38	6.29278
55.6	1.3795
55.82	38.8385
56.04	55.0376
56.26	37.3662
56.48	34.5561
56.7	11.0013
56.92	5.04491
57.14	10.4055
57.36	8.01978
57.58	9.95238
57.8	19.7052
58.02	17.5263
58.24	22.5289
58.46	19.9305
58.68	16.3248
58.9	4.21411
59.12	17.0203
59.34	1.56211
59.56	17.1349
59.78	37.3695
60	24.9911
60.22	17.8477
60.44	11.4648
60.66	17.4158
60.88	19.4985
61.1	7.70981
61.32	11.9417
61.54	14.866
61.76	13.1478
61.98	12.7533
62.2	29.6557
62.42	19.3575
62.64	17.1045
62.86	15.6265
63.08	20.2326
63.3	12.2783
63.52	18.7569
63.74	48.2165
63.96	11.8882
64.18	17.2815
64.4	10.507
64.62	20.9539
64.84	23.1483
65.06	11.9376
65.28	13.749
65.5	13.5002
65.72	6.01011
65.94	17.8358
66.16	11.7576
66.38	4.98265
66.6	13.9739
66.82	16.0931
67.04	18.8529
67.26	17.1717
67.48	21.4663
67.7	4.70016
67.92	0.644634
68.14	5.15033
68.36	18.7615
68.58	0.125305
68.8	11.9564
69.02	26.0367
69.24	16.1875
69.46	19.5086
69.68	12.8164
69.9	24.9544
70.12	17.3553
70.34	2.46501
70.56	3.25241
70.78	18.1499
71	20.7708
71.22	15.9521
71.44	23.9034
71.66	30.8066
71.88	17.6559
72.1	7.55819
72.32	15.2826
72.54	20.7982
72.76	12.6049
72.98	13.8832
73.2	16.1527
73.42	18.3931
73.64	2.66016
73.86	13.3957
74.08	10.2004
74.3	23.84
74.52	5.11073
74.74	11.6243
74.96	15.6909
75.18	6.1754
75.4	16.2861
75.62	11.7478
75.84	10.2045
76.06	12.7872
76.28	12.4963
76.5	12.1832
76.72	17.5689
76.94	2.2686
77.16	16.2085
77.38	16.6904
77.6	3.42613
77.82	4.82457
78.04	12.035
78.26	20.2384
78.48	11.28
78.7	3.13551
78.92	8.22638
79.14	21.837
79.36	29.205
79.58	24.2667
79.8	13.2102
80.02	6.25572
80.24	2.96376
80.46	9.5381
80.68	12.4577
80.9	4.05978
81.12	12.3938
81.34	17.791
81.56	3.01449
81.78	9.80362
82	8.16412
82.22	7.07599
82.44	6.03385
82.66	32.1077
82.88	6.09753
83.1	12.9852
83.32	16.1672
83.54	5.98195
83.76	4.65092
83.98	12.383
84.2	7.79421
84.42	6.22112
84.64	1.77547
84.86	14.8443
85.08	0.440651
85.3	16.3804
85.52	18.414
85.74	12.2432
85.96	14.3742
86.18	5.21555
86.4	23.9756
86.62	22.874
86.84	0.821335
87.06	9.18646
87.28	11.5307
87.5	19.5073
87.72	7.23449
87.94	7.09686
88.16	14.3086
88.38	12.54
88.6	6.95077
88.82	20.2521
89.04	13.031
89.26	3.25292
89.48	11.6405
89.7	17.1882
89.92	8.29919
