Measurement: Powder, Xray Data XY Processed
Mineral: Fluorapatite
Rruff sample: R040098
Ideal chemistry: Ca_5_(PO_4_)_3_F
Locality: Cerro de Mercado mine, Durango, Mexico
Source: Marcus Origlieri
Description: Pale yellow short hexagonal prism
Diffraction sample description: Powder
Measured chemistry: Ca_5.00_((P_0.98_Si_0.01_S_0.01_)O_4_)_3_F_1.00_
Cell parameters: a: 9.3925(1) b: 9.3925(1) c: 6.8839(2) alpha: 90. beta: 90. gamma: 120. volume: 525.94(2) crystal system: hexagonal
x	intensity
5	0
5.22	2.461
5.44	12.094
5.66	13.26
5.88	6.926
6.1	2.734
6.32	2.725
6.54	3.77
6.76	18.887
6.98	6.483
7.2	8.422
7.42	4.13
7.64	7.276
7.86	6.991
8.08	4.474
8.3	3.894
8.52	5.563
8.74	6.873
8.96	7.201
9.18	1.603
9.4	4.491
9.62	4.565
9.84	1.191
10.06	11.084
10.28	1.876
10.5	2.199
10.72	2.819
10.94	22.698
11.16	1.917
11.38	11.335
11.6	4.31
11.82	4.293
12.04	9.388
12.26	1.664
12.48	4.697
12.7	1.895
12.92	4.946
13.14	2.8
13.36	4.068
13.58	1.736
13.8	0.637
14.02	6.671
14.24	4.978
14.46	3.134
14.68	4.092
14.9	0.294
15.12	3.271
15.34	10.412
15.56	0.587
15.78	5.584
16	1.703
16.22	5.798
16.44	3.054
16.66	0.95
16.88	18.211
17.1	7.317
17.32	1.448
17.54	10.695
17.76	1.01
17.98	7.05
18.2	4.216
18.42	8.3
18.64	4.291
18.86	6.326
19.08	7.357
19.3	3.273
19.52	7.255
19.74	4.165
19.96	4.911
20.18	2.912
20.4	6.011
20.62	0.063
20.84	5.923
21.06	4.04
21.28	2.804
21.5	0.002
21.72	0.997
21.94	35.066
22.16	1.19
22.38	2.248
22.6	8.213
22.82	6.115
23.04	10.203
23.26	0.691
23.48	0.248
23.7	6.383
23.92	4.417
24.14	7.535
24.36	4.502
24.58	0.421
24.8	1.381
25.02	0.295
25.24	1.569
25.46	11.492
25.68	5.596
25.9	185.442
26.12	9.506
26.34	8.461
26.56	3.567
26.78	3.503
27	1.385
27.22	2.355
27.44	9.255
27.66	3.159
27.88	3.669
28.1	4.402
28.32	2.381
28.54	0.222
28.76	12.193
28.98	17.217
29.2	13.681
29.42	2.441
29.64	3.667
29.86	1.663
30.08	2.626
30.3	5.451
30.52	2.163
30.74	4.736
30.96	1.171
31.18	2.452
31.4	8.805
31.62	9.347
31.84	143.157
32.06	36.674
32.28	446.397
32.5	5.613
32.72	13.927
32.94	20.188
33.16	183.507
33.38	4.086
33.6	5.707
33.82	8.461
34.04	9.826
34.26	51.331
34.48	0.777
34.7	9.169
34.92	5.275
35.14	0.775
35.36	1.464
35.58	18.655
35.8	8.93
36.02	4.99
36.24	0.833
36.46	5.696
36.68	6.768
36.9	0.087
37.12	2.08
37.34	2.029
37.56	2.23
37.78	4.449
38	5.54
38.22	1.222
38.44	5.229
38.66	1.128
38.88	8.865
39.1	3.7
39.32	22.516
39.54	5.236
39.76	7.073
39.98	123.819
40.2	5.58
40.42	1.477
40.64	7.604
40.86	2.616
41.08	0.696
41.3	4.827
41.52	0.06
41.74	2.175
41.96	1.458
42.18	25.812
42.4	5.968
42.62	4.109
42.84	0.148
43.06	0.997
43.28	2.026
43.5	1.005
43.72	6.157
43.94	27.054
44.16	0.918
44.38	0.769
44.6	12.507
44.82	1.435
45.04	3.361
45.26	6.441
45.48	13.279
45.7	3.116
45.92	1.992
46.14	0.142
46.36	1.958
46.58	7.771
46.8	51.611
47.02	23.373
47.24	1.982
47.46	5.847
47.68	4.497
47.9	1.372
48.12	7.34
48.34	37.199
48.56	6.021
48.78	37.664
49	0.872
49.22	4.976
49.44	9.943
49.66	56.954
49.88	4.858
50.1	2.831
50.32	0.803
50.54	5.034
50.76	16.395
50.98	9.666
51.2	0.782
51.42	19.539
51.64	30.067
51.86	3.336
52.08	1.526
52.3	21.683
52.52	2.696
52.74	4.071
52.96	0.753
53.18	23.274
53.4	17.396
53.62	3.846
53.84	2.875
54.06	2.806
54.28	7.974
54.5	4.078
54.72	5.327
54.94	2.321
55.16	2.14
55.38	3.263
55.6	7.199
55.82	4.083
56.04	25.851
56.26	8.784
56.48	3.067
56.7	5.06
56.92	3.168
57.14	10.078
57.36	7.151
57.58	6.103
57.8	2.15
58.02	3.382
58.24	5.535
58.46	6.594
58.68	1.597
58.9	0.484
59.12	1.382
59.34	3.22
59.56	1.163
59.78	2.164
60	2.171
60.22	16.196
60.44	7.005
60.66	18.957
60.88	2.908
61.1	2.105
61.32	2.176
61.54	3.228
61.76	19.327
61.98	6.272
62.2	4.074
62.42	5.133
62.64	3.828
62.86	5.697
63.08	3.552
63.3	7.413
63.52	1.043
63.74	3.063
63.96	7.065
64.18	7.956
64.4	14.024
64.62	5.138
64.84	2.778
65.06	0.481
65.28	30.015
65.5	24.25
65.72	5.498
65.94	0.79
66.16	5.704
66.38	4.99
66.6	10.27
66.82	6.438
67.04	3.509
67.26	4.618
67.48	3.551
67.7	1.302
67.92	4.356
68.14	1.453
68.36	4.486
68.58	13.366
68.8	6.27
69.02	8.244
69.24	6.187
69.46	5.158
69.68	5.175
69.9	7.284
70.12	8.339
70.34	4.158
70.56	3.102
70.78	0.026
71	2.865
71.22	3.818
71.44	3.649
71.66	3.608
71.88	15.601
72.1	9.657
72.32	0.66
72.54	9.78
72.76	8.862
72.98	2.884
73.2	1.073
73.42	0.021
73.64	1.078
73.86	6.313
74.08	12.309
74.3	6.186
74.52	4.906
74.74	9.736
74.96	4.533
75.18	4.663
75.4	2.509
75.62	21.368
75.84	10.178
76.06	0.874
76.28	7.614
76.5	0.446
76.72	0.427
76.94	4.459
77.16	20.57
77.38	21.41
77.6	4.187
77.82	1.28
78.04	4.444
78.26	7.602
78.48	38.875
78.7	22.273
78.92	2.558
79.14	0.327
79.36	3.714
79.58	0.22
79.8	1.08
80.02	0.233
80.24	4.287
80.46	1.226
80.68	6.269
80.9	5.109
81.12	1.915
81.34	12.835
81.56	6.754
81.78	1.623
82	10.431
82.22	3.335
82.44	1.214
82.66	6.186
82.88	3.067
83.1	6.47
83.32	5.52
83.54	10.479
83.76	4.461
83.98	4.58
84.2	2.749
84.42	18.855
84.64	7.926
84.86	2.003
85.08	5.164
85.3	8.492
85.52	3.289
85.74	6.483
85.96	6.561
86.18	1.478
86.4	3.422
86.62	4.269
86.84	1.09
87.06	3.016
87.28	2.807
87.5	27.656
87.72	8.297
87.94	1.996
88.16	10.842
88.38	11.849
88.6	5.991
88.82	14.224
89.04	0.36
89.26	2.657
89.48	1.079
89.7	1.866
89.92	3.675
