Measurement: Powder, Xray Data XY Processed
Mineral: Fluorapatite
Rruff sample: R060333
Ideal chemistry: Ca_5_(PO_4_)_3_F
Locality: Lovozero Massif, Kola Peninsula, U.S.S.R.
Source: Michael Scott
Description: Colorless fragment associated with red villiaumite
Diffraction sample description: Powder
Measured chemistry: (Ca_4.29_Sr_0.47_Na_0.12_Ce_0.07_La_0.06_)_Σ=5_((P_0.99_Si_0.01_)_Σ=1_O_4_)_3_F_1.00_
Cell parameters: a: 9.4223(1) b: 9.4223(1) c: 6.9283(2) alpha: 90. beta: 90. gamma: 120. volume: 532.69(1) crystal system: hexagonal
x	intensity
5	0
5.22	7.26119
5.44	4.55459
5.66	13.502
5.88	13.5565
6.1	5.84234
6.32	8.29126
6.54	4.60767
6.76	11.0132
6.98	6.00595
7.2	11.7286
7.42	15.6353
7.64	3.37952
7.86	0.259592
8.08	6.91578
8.3	5.76865
8.52	5.29243
8.74	3.69774
8.96	3.02345
9.18	9.27349
9.4	5.88373
9.62	2.77507
9.84	2.54615
10.06	1.49456
10.28	0.664069
10.5	0.302343
10.72	4.22565
10.94	21.4268
11.16	2.52275
11.38	7.86595
11.6	8.05172
11.82	6.23793
12.04	1.47112
12.26	1.82665
12.48	0.05837
12.7	3.37592
12.92	2.65546
13.14	5.6966
13.36	4.61569
13.58	3.77312
13.8	2.57699
14.02	2.51246
14.24	0.514898
14.46	1.59707
14.68	5.47495
14.9	4.38205
15.12	5.23828
15.34	6.24589
15.56	4.20151
15.78	4.22579
16	2.10172
16.22	0.087172
16.44	1.86014
16.66	5.23625
16.88	13.1328
17.1	3.09227
17.32	4.07271
17.54	4.19994
17.76	0.765955
17.98	0.252211
18.2	6.29244
18.42	4.51079
18.64	0.261947
18.86	4.83941
19.08	8.77291
19.3	5.98508
19.52	3.06755
19.74	3.18738
19.96	2.16925
20.18	3.01725
20.4	0.909172
20.62	1.12059
20.84	1.87894
21.06	4.74596
21.28	3.73586
21.5	5.74333
21.72	2.60938
21.94	6.56566
22.16	3.5582
22.38	1.50567
22.6	2.67238
22.82	3.61946
23.04	0.725999
23.26	6.7974
23.48	0.902776
23.7	2.91659
23.92	0.001228
24.14	1.97171
24.36	2.94504
24.58	5.8111
24.8	6.73583
25.02	3.63372
25.24	7.56635
25.46	7.49134
25.68	11.437
25.9	17.4087
26.12	1.4096
26.34	7.52433
26.56	5.65673
26.78	2.67455
27	2.68995
27.22	6.74303
27.44	3.75548
27.66	1.85006
27.88	7.72509
28.1	28.6683
28.32	3.69997
28.54	3.60196
28.76	0.698475
28.98	28.873
29.2	5.90323
29.42	6.09907
29.64	2.07716
29.86	0.017601
30.08	4.94169
30.3	1.02457
30.52	3.96851
30.74	1.64996
30.96	9.4274
31.18	7.91602
31.4	8.75368
31.62	5.67923
31.84	297.322
32.06	22.1612
32.28	14.936
32.5	0.099689
32.72	0.158361
32.94	23.1264
33.16	12.2803
33.38	2.51721
33.6	1.72326
33.82	3.91435
34.04	39.9784
34.26	7.17961
34.48	3.34743
34.7	3.48433
34.92	0.382111
35.14	5.61127
35.36	6.73995
35.58	5.85872
35.8	0.972317
36.02	5.08189
36.24	2.96907
36.46	4.03772
36.68	4.20715
36.9	5.23916
37.12	7.32435
37.34	2.25548
37.56	2.14062
37.78	2.1052
38	1.01667
38.22	4.91815
38.44	1.82599
38.66	0.861823
38.88	3.77061
39.1	1.63781
39.32	2.64081
39.54	7.57482
39.76	0.701986
39.98	39.8024
40.2	3.06426
40.42	1.16756
40.64	8.22881
40.86	5.20097
41.08	7.25275
41.3	1.2878
41.52	3.47979
41.74	3.52854
41.96	5.57388
42.18	19.5086
42.4	3.2669
42.62	4.1543
42.84	3.05998
43.06	1.07479
43.28	5.0317
43.5	4.05424
43.72	26.1858
43.94	2.02466
44.16	6.00745
44.38	3.06252
44.6	4.18167
44.82	4.23661
45.04	8.3694
45.26	8.5278
45.48	0.382876
45.7	1.65493
45.92	4.78149
46.14	0.682967
46.36	3.63636
46.58	3.63892
46.8	43.5407
47.02	3.26544
47.24	1.13996
47.46	0.998716
47.68	3.66586
47.9	9.58514
48.12	6.45698
48.34	9.18085
48.56	0.027984
48.78	6.87828
49	2.96988
49.22	3.23721
49.44	32.2103
49.66	6.11797
49.88	1.1465
50.1	6.23153
50.32	1.93272
50.54	63.1038
50.76	7.32221
50.98	2.31195
51.2	2.30635
51.42	16.1326
51.64	0.089617
51.86	0.969603
52.08	49.0169
52.3	4.0737
52.52	6.34647
52.74	5.57356
52.96	16.6756
53.18	4.75832
53.4	2.96062
53.62	0.131023
53.84	2.25177
54.06	4.37855
54.28	1.66781
54.5	1.77343
54.72	2.84973
54.94	9.74622
55.16	1.66238
55.38	2.71049
55.6	7.72229
55.82	8.70825
56.04	7.71502
56.26	3.84748
56.48	4.84665
56.7	0.653469
56.92	3.57129
57.14	6.57302
57.36	0.379544
57.58	2.6224
57.8	1.65923
58.02	1.68437
58.24	0.673728
58.46	6.65836
58.68	2.54595
58.9	5.46622
59.12	3.41671
59.34	1.38245
59.56	3.27483
59.78	6.32934
60	5.42146
60.22	3.24169
60.44	7.17337
60.66	10.1808
60.88	1.33721
61.1	4.29419
61.32	5.48354
61.54	3.53758
61.76	5.532
61.98	4.51096
62.2	2.31398
62.42	3.25572
62.64	1.20794
62.86	1.13078
63.08	4.01861
63.3	3.85747
63.52	0.855159
63.74	23.8229
63.96	5.71792
64.18	3.73668
64.4	3.78186
64.62	1.03203
64.84	0.00342
65.06	14.1657
65.28	13.2478
65.5	4.33858
65.72	2.42962
65.94	0.511818
66.16	2.43991
66.38	7.50196
66.6	3.6155
66.82	1.77665
67.04	0.368401
67.26	0.728543
67.48	4.73693
67.7	3.78911
67.92	1.7426
68.14	0.827554
68.36	1.19942
68.58	2.82825
68.8	0.793938
69.02	4.86046
69.24	3.73802
69.46	3.75074
69.68	11.7346
69.9	1.75866
70.12	3.69577
70.34	1.66705
70.56	2.53655
70.78	3.42427
71	1.62429
71.22	3.30607
71.44	4.15673
71.66	22.2145
71.88	7.19337
72.1	0.107719
72.32	16.0011
72.54	9.06349
72.76	3.07025
72.98	3.07084
73.2	3.17496
73.42	7.23424
73.64	0.307302
73.86	8.27113
74.08	5.23375
74.3	0.79543
74.52	0.157089
74.74	4.36008
74.96	0.286689
75.18	19.3242
75.4	10.4256
75.62	2.33395
75.84	0.236206
76.06	5.16769
76.28	7.14494
76.5	5.11923
76.72	6.37464
76.94	10.3577
77.16	2.151
77.38	3.06676
77.6	5.11117
77.82	2.10179
78.04	3.11602
78.26	6.23226
78.48	5.38351
78.7	5.57843
78.92	6.57116
79.14	2.44757
79.36	1.59704
79.58	4.67414
79.8	0.829326
80.02	4.88293
80.24	2.85087
80.46	1.85585
80.68	3.82698
80.9	5.74209
81.12	3.67588
81.34	0.584835
81.56	0.608519
81.78	9.63453
82	4.59231
82.22	2.40199
82.44	1.30452
82.66	1.23245
82.88	2.17557
83.1	1.05883
83.32	10.158
83.54	9.19489
83.76	6.17774
83.98	8.11562
84.2	8.08885
84.42	6.17684
84.64	5.35617
84.86	9.63233
85.08	2.77928
85.3	1.91606
85.52	3.9429
85.74	0.743937
85.96	4.68203
86.18	2.6146
86.4	2.49058
86.62	2.3767
86.84	7.22013
87.06	6.1734
87.28	2.92018
87.5	1.74485
87.72	3.71509
87.94	0.19407
88.16	1.89782
88.38	9.07385
88.6	5.23849
88.82	0.469328
89.04	6.68219
89.26	1.86401
89.48	3.06583
89.7	3.41264
89.92	4.72071
