Measurement: Powder, Xray Data XY Processed
Mineral: Fluorapatite
Rruff sample: R060421
Ideal chemistry: Ca_5_(PO_4_)_3_F
Locality: Levant mine, St. Just, Cornwall, England
Source: Michael Scott
Description: Brown hexagonal prisms
Diffraction sample description: Powder
Measured chemistry: (Ca_4.93_[box]_0.07_)_Σ=5_((PO_4_)_2.86_(CO_3_)_0.14_)_Σ=3_F_1.00_ ; C not measured but estimated by difference and charge balance
Cell parameters: a: 9.3681(1) b: 9.3681(1) c: 6.8931(1) alpha: 90. beta: 90. gamma: 120. volume: 523.91(1) crystal system: hexagonal
x	intensity
5	0
5.22	6.96174
5.44	16.0579
5.66	15.6624
5.88	14.5227
6.1	7.68257
6.32	1.11052
6.54	6.26137
6.76	10.9335
6.98	8.66492
7.2	5.39846
7.42	15.0419
7.64	3.82602
7.86	4.62232
8.08	9.47893
8.3	6.20671
8.52	9.96846
8.74	2.4742
8.96	2.94858
9.18	5.07774
9.4	2.18556
9.62	7.23436
9.84	6.14069
10.06	4.01833
10.28	6.17795
10.5	12.1681
10.72	7.26979
10.94	48.2677
11.16	0.475957
11.38	8.88457
11.6	4.09613
11.82	7.4377
12.04	1.84849
12.26	6.15602
12.48	2.46239
12.7	2.60238
12.92	0.904705
13.14	4.22239
13.36	6.54168
13.58	4.78587
13.8	7.77258
14.02	4.84744
14.24	4.90231
14.46	4.85818
14.68	5.87774
14.9	5.72167
15.12	1.34604
15.34	3.60089
15.56	1.52472
15.78	4.31681
16	2.09743
16.22	1.04198
16.44	0.063139
16.66	3.97427
16.88	2.95346
17.1	3.0531
17.32	4.12326
17.54	1.30588
17.76	6.50172
17.98	8.50524
18.2	4.69485
18.42	8.80446
18.64	3.91921
18.86	1.95711
19.08	2.00175
19.3	0.042942
19.52	6.01372
19.74	7.01508
19.96	1.82786
20.18	4.6976
20.4	6.84064
20.62	1.81749
20.84	1.86704
21.06	2.77378
21.28	2.75838
21.5	4.67257
21.72	4.8915
21.94	19.7953
22.16	3.91399
22.38	2.9314
22.6	0.921176
22.82	1.25162
23.04	10.6915
23.26	0.208957
23.48	0.113693
23.7	1.87721
23.92	4.03541
24.14	2.86754
24.36	4.87276
24.58	3.68978
24.8	1.60167
25.02	2.60277
25.24	1.37976
25.46	9.46809
25.68	4.30061
25.9	164.173
26.12	11.4906
26.34	1.37966
26.56	5.34402
26.78	5.34621
27	1.3612
27.22	2.39164
27.44	0.292128
27.66	1.39182
27.88	3.40746
28.1	6.44284
28.32	7.47457
28.54	1.26011
28.76	4.2622
28.98	5.43573
29.2	39.6945
29.42	4.84904
29.64	4.90643
29.86	2.01663
30.08	5.80849
30.3	6.68888
30.52	2.5135
30.74	1.14513
30.96	2.77951
31.18	1.33451
31.4	2.8261
31.62	5.42567
31.84	12.1122
32.06	174.75
32.28	162.405
32.5	8.71533
32.72	2.77775
32.94	8.78284
33.16	160.917
33.38	8.41878
33.6	5.82467
33.82	3.02858
34.04	6.24144
34.26	47.4222
34.48	1.92846
34.7	2.17824
34.92	1.97944
35.14	4.35838
35.36	0.641131
35.58	3.83545
35.8	3.75998
36.02	6.93089
36.24	3.04171
36.46	1.18514
36.68	2.30692
36.9	3.21079
37.12	1.30275
37.34	3.25381
37.56	3.0554
37.78	2.10304
38	3.16535
38.22	2.09782
38.44	1.08207
38.66	6.08056
38.88	5.01532
39.1	7.93122
39.32	13.9055
39.54	0.112122
39.76	0.871075
39.98	7.92615
40.2	26.8573
40.42	0.783767
40.64	2.78982
40.86	8.96003
41.08	4.01595
41.3	1.06743
41.52	2.11607
41.74	3.10443
41.96	0.696152
42.18	7.50155
42.4	17.5088
42.62	11.4022
42.84	2.4229
43.06	5.50065
43.28	5.23651
43.5	3.21443
43.72	6.17862
43.94	17.3381
44.16	0.565498
44.38	3.18417
44.6	0.993905
44.82	2.94319
45.04	0.978832
45.26	3.98814
45.48	10.9924
45.7	2.95126
45.92	1.87545
46.14	0.84768
46.36	2.88683
46.58	0.73591
46.8	9.87974
47.02	53.0145
47.24	2.91867
47.46	2.27872
47.68	9.62538
47.9	3.46816
48.12	2.37856
48.34	32.2216
48.56	8.08075
48.78	2.67619
49	11.5627
49.22	2.43027
49.44	6.41005
49.66	25.3908
49.88	6.31668
50.1	6.43361
50.32	0.539209
50.54	0.529713
50.76	28.7061
50.98	19.8199
51.2	2.87354
51.42	3.84971
51.64	29.8886
51.86	5.76067
52.08	1.82568
52.3	13.9492
52.52	14.9499
52.74	1.085
52.96	2.24168
53.18	61.3107
53.4	3.4379
53.62	0.695424
53.84	4.94672
54.06	1.90592
54.28	0.990152
54.5	2.10718
54.72	2.25311
54.94	4.26557
55.16	3.18162
55.38	4.15805
55.6	1.32243
55.82	4.31442
56.04	6.17991
56.26	12.0494
56.48	5.09592
56.7	9.10548
56.92	3.19387
57.14	2.03966
57.36	6.0561
57.58	0.905841
57.8	5.4435
58.02	4.17523
58.24	1.34774
58.46	5.35887
58.68	4.47932
58.9	4.35903
59.12	6.28535
59.34	0.209881
59.56	2.16751
59.78	2.10842
60	3.97302
60.22	1.80851
60.44	4.91833
60.66	0.805374
60.88	7.74751
61.1	1.69701
61.32	5.8471
61.54	4.94452
61.76	13.1346
61.98	6.1548
62.2	1.13903
62.42	0.922281
62.64	1.88493
62.86	2.7901
63.08	1.71808
63.3	15.6372
63.52	13.556
63.74	3.49093
63.96	8.56596
64.18	9.38344
64.4	17.3851
64.62	13.4251
64.84	0.66137
65.06	1.69347
65.28	2.78347
65.5	19.9255
65.72	6.03453
65.94	2.14619
66.16	2.10616
66.38	0.821454
66.6	1.30042
66.82	3.44901
67.04	0.564432
67.26	3.48626
67.48	2.59469
67.7	2.65444
67.92	0.143418
68.14	2.0435
68.36	3.11205
68.58	2.09957
68.8	6.08501
69.02	4.12241
69.24	1.1515
69.46	4.2088
69.68	0.329027
69.9	5.31962
70.12	6.24553
70.34	2.11577
70.56	0.87139
70.78	3.10835
71	5.98576
71.22	1.9051
71.44	2.92477
71.66	0.831471
71.88	2.76123
72.1	10.6198
72.32	4.54076
72.54	2.6725
72.76	9.85788
72.98	6.82726
73.2	2.78216
73.42	8.77178
73.64	2.79798
73.86	2.76241
74.08	1.71737
74.3	6.62597
74.52	12.5474
74.74	0.468686
74.96	2.27851
75.18	4.38356
75.4	3.1694
75.62	17.1713
75.84	8.17778
76.06	0.906712
76.28	2.96486
76.5	1.90074
76.72	1.86742
76.94	2.92176
77.16	8.97054
77.38	9.97922
77.6	5.69669
77.82	5.79914
78.04	1.92453
78.26	1.08138
78.48	1.1718
78.7	12.3924
78.92	12.5993
79.14	6.69935
79.36	1.8443
79.58	5.80989
79.8	1.85383
80.02	0.097231
80.24	0.865194
80.46	2.80751
80.68	0.31831
80.9	3.59749
81.12	1.47354
81.34	4.53085
81.56	0.498581
81.78	0.36482
82	4.33029
82.22	2.26475
82.44	0.822876
82.66	2.10044
82.88	2.94202
83.1	5.84279
83.32	5.76805
83.54	0.191745
83.76	6.61316
83.98	4.56634
84.2	4.50647
84.42	1.56207
84.64	4.7307
84.86	7.77527
85.08	0.845009
85.3	3.07248
85.52	0.246428
85.74	0.343737
85.96	5.33888
86.18	5.38688
86.4	4.40248
86.62	0.520256
86.84	3.44384
87.06	0.303083
87.28	4.32761
87.5	4.41986
87.72	3.18054
87.94	4.09097
88.16	3.05732
88.38	4.08749
88.6	2.20145
88.82	2.29678
89.04	11.2556
89.26	9.38048
89.48	4.38473
89.7	0.291665
89.92	0.088776
