Measurement: Powder, Xray Data XY Processed
Mineral: Forsterite
Rruff sample: R060551
Ideal chemistry: Mg_2_SiO_4_
Locality: Kohiston, Pakistan
Source: Gemological Institute of America
Description: Pale green fragment
Diffraction sample description: Powder
Measured chemistry: (Mg_1.82_Fe_0.18_)_Î£=2_Si_1.00_O_4_; trace amounts of Mn
Cell parameters: a: 4.7615(1) b: 10.2248(2) c: 5.9932(2) alpha: 90. beta: 90. gamma: 90. volume: 291.787(10) crystal system: orthorhombic
x	intensity
5	0
5.22	7.24199
5.44	3.05221
5.66	14.9749
5.88	8.54922
6.1	19.04
6.32	15.03
6.54	19.9954
6.76	15.1663
6.98	9.34805
7.2	6.18994
7.42	18.2074
7.64	15.9638
7.86	12.8189
8.08	6.46099
8.3	15.3543
8.52	19.7575
8.74	6.25417
8.96	4.428
9.18	12.9799
9.4	11.3674
9.62	18.3449
9.84	22.3775
10.06	13.5628
10.28	11.6514
10.5	10.2819
10.72	7.48031
10.94	7.21819
11.16	23.8792
11.38	13.2223
11.6	9.33461
11.82	15.3972
12.04	12.5234
12.26	7.92883
12.48	0.732632
12.7	2.54068
12.92	8.48982
13.14	11.5058
13.36	8.55886
13.58	6.76767
13.8	16.725
14.02	5.69988
14.24	17.6755
14.46	2.81625
14.68	4.02318
14.9	6.30509
15.12	11.1948
15.34	6.80889
15.56	14.7653
15.78	14.9132
16	4.18288
16.22	4.55377
16.44	18.5632
16.66	6.3871
16.88	6.58917
17.1	14.7762
17.32	17.6673
17.54	10.3398
17.76	3.90013
17.98	6.10601
18.2	7.24434
18.42	4.737
18.64	2.83446
18.86	9.01167
19.08	10.9054
19.3	6.53107
19.52	14.0852
19.74	19.0757
19.96	3.00121
20.18	7.82777
20.4	10.4201
20.62	21.366
20.84	4.98951
21.06	2.42992
21.28	5.8664
21.5	10.9383
21.72	8.04324
21.94	5.07873
22.16	7.03882
22.38	11.2989
22.6	6.25557
22.82	35.0792
23.04	16.276
23.26	20.3175
23.48	1.24609
23.7	1.16251
23.92	76.1827
24.14	12.9173
24.36	11.7429
24.58	12.5532
24.8	3.26638
25.02	22.189
25.24	10.32
25.46	65.9909
25.68	26.529
25.9	9.90835
26.12	14.9184
26.34	25.0507
26.56	3.47796
26.78	18.2559
27	16.8477
27.22	4.5335
27.44	9.5731
27.66	1.93921
27.88	2.72034
28.1	5.51902
28.32	1.5299
28.54	14.2866
28.76	11.0094
28.98	17.5294
29.2	8.59222
29.42	18.4919
29.64	12.147
29.86	52.2709
30.08	7.07074
30.3	6.8701
30.52	13.4685
30.74	0.519382
30.96	3.17558
31.18	0.826561
31.4	10.482
31.62	14.1342
31.84	1.51156
32.06	11.9839
32.28	75.5408
32.5	27.5571
32.72	19.7102
32.94	6.82838
33.16	8.40114
33.38	13.2477
33.6	14.6314
33.82	6.955
34.04	6.48487
34.26	11.2704
34.48	16.9216
34.7	18.419
34.92	7.50341
35.14	12.6487
35.36	22.7422
35.58	28.6407
35.8	158.857
36.02	9.59429
36.24	21.7578
36.46	57.9201
36.68	42.7524
36.9	14.2842
37.12	6.12109
37.34	4.58183
37.56	0.029379
37.78	16.3042
38	2.74063
38.22	10.3503
38.44	14.886
38.66	14.4705
38.88	34.2801
39.1	10.3481
39.32	15.0324
39.54	9.04401
39.76	61.9368
39.98	31.1639
40.2	32.2589
40.42	11.8111
40.64	3.45004
40.86	5.85499
41.08	7.33975
41.3	17.0179
41.52	6.43476
41.74	23.4546
41.96	6.18712
42.18	16.4061
42.4	7.37917
42.62	6.18205
42.84	8.50673
43.06	7.72463
43.28	6.63753
43.5	18.4824
43.72	15.1451
43.94	11.4664
44.16	0.592791
44.38	10.9905
44.6	13.2703
44.82	11.3456
45.04	13.5918
45.26	11.6664
45.48	14.5546
45.7	14.6162
45.92	3.68228
46.14	7.67565
46.36	15.5526
46.58	6.69285
46.8	17.6546
47.02	7.42031
47.24	6.28929
47.46	0.222181
47.68	4.18045
47.9	1.17866
48.12	4.08882
48.34	23.0861
48.56	11.0753
48.78	1.15299
49	16.0418
49.22	14.9802
49.44	4.80789
49.66	11.0824
49.88	9.87335
50.1	11.2292
50.32	16.1888
50.54	10.2129
50.76	2.45396
50.98	16.1277
51.2	19.5724
51.42	16.1925
51.64	2.06076
51.86	11.0058
52.08	20.9829
52.3	49.3972
52.52	51.2978
52.74	20.7213
52.96	7.76388
53.18	8.91762
53.4	6.6227
53.62	17.9456
53.84	9.2646
54.06	1.86802
54.28	14.1991
54.5	0.121086
54.72	15.7786
54.94	14.628
55.16	4.77573
55.38	14.036
55.6	4.39153
55.82	7.65584
56.04	15.4831
56.26	36.1762
56.48	5.45889
56.7	1.6364
56.92	22.2208
57.14	22.9505
57.36	5.06422
57.58	17.0316
57.8	4.94329
58.02	0.052368
58.24	1.93702
58.46	21.2749
58.68	21.5185
58.9	5.77127
59.12	7.78351
59.34	7.28862
59.56	1.71048
59.78	17.2758
60	20.1168
60.22	1.8903
60.44	1.37814
60.66	2.53219
60.88	12.2474
61.1	10.1676
61.32	18.7556
61.54	4.02996
61.76	17.293
61.98	35.2563
62.2	14.4615
62.42	7.53863
62.64	23.0876
62.86	68.3444
63.08	17.8696
63.3	6.25433
63.52	8.94241
63.74	0.442196
63.96	13.323
64.18	12.2022
64.4	2.65663
64.62	17.7692
64.84	10.0982
65.06	19.99
65.28	7.91642
65.5	1.17403
65.72	13.9215
65.94	10.6135
66.16	0.245537
66.38	3.17354
66.6	10.8653
66.82	18.2167
67.04	26.8535
67.26	6.12428
67.48	12.9043
67.7	4.85095
67.92	2.02948
68.14	16.1171
68.36	5.24442
68.58	16.9908
68.8	5.12323
69.02	3.08684
69.24	15.8547
69.46	27.0859
69.68	45.05
69.9	18.0424
70.12	13.2306
70.34	12.7505
70.56	15.7987
70.78	17.8443
71	2.90149
71.22	11.0551
71.44	15.0847
71.66	11.7081
71.88	13.6048
72.1	21.5594
72.32	9.61263
72.54	21.9355
72.76	15.0194
72.98	9.47441
73.2	14.6272
73.42	15.2149
73.64	0.171188
73.86	13.5739
74.08	4.35596
74.3	7.35045
74.52	8.54653
74.74	15.3689
74.96	2.25198
75.18	15.6944
75.4	12.2357
75.62	8.07533
75.84	5.47714
76.06	19.4821
76.28	10.1283
76.5	11.0239
76.72	9.30934
76.94	16.3248
77.16	7.34097
77.38	2.3893
77.6	4.64156
77.82	10.884
78.04	8.5162
78.26	12.7389
78.48	8.21037
78.7	7.77461
78.92	12.592
79.14	6.865
79.36	13.3763
79.58	9.17662
79.8	1.96829
80.02	21.3777
80.24	4.31656
80.46	12.405
80.68	7.24357
80.9	1.63028
81.12	2.34183
81.34	10.3291
81.56	6.10025
81.78	6.96499
82	5.01776
82.22	13.465
82.44	7.01047
82.66	15.605
82.88	21.3687
83.1	4.29097
83.32	8.02198
83.54	16.75
83.76	14.8195
83.98	17.7168
84.2	24.8674
84.42	10.6075
84.64	9.21428
84.86	14.2175
85.08	12.622
85.3	3.73383
85.52	4.71198
85.74	11.8084
85.96	0.128262
86.18	10.9726
86.4	12.9433
86.62	12.6401
86.84	11.0295
87.06	11.9143
87.28	1.18944
87.5	10.3392
87.72	22.0774
87.94	7.23587
88.16	27.1173
88.38	8.00312
88.6	7.20862
88.82	11.9574
89.04	8.10839
89.26	18.323
89.48	12.1213
89.7	8.40197
89.92	16.2866
