Measurement: Powder, Xray Data XY Processed
Mineral: Forsterite
Rruff sample: R060535
Ideal chemistry: Mg_2_SiO_4_
Locality: unknown
Source: Gemological Institute of America
Description: Transparent brown gemstone
Diffraction sample description: Powder
Measured chemistry: (Mg_1.81_Fe_0.18_Ni_0.01_)_Î£=2_Si_1.00_O_4_
Cell parameters: a: 4.7614(3) b: 10.2236(3) c: 5.9923(2) alpha: 90. beta: 90. gamma: 90. volume: 291.70(2) crystal system: orthorhombic
x	intensity
5	0
5.22	17.5802
5.44	17.1253
5.66	11.3056
5.88	13.9511
6.1	22.3223
6.32	6.14507
6.54	14.3724
6.76	17.4018
6.98	14.1993
7.2	7.39138
7.42	6.79907
7.64	6.42725
7.86	4.69838
8.08	18.1113
8.3	26.4831
8.52	4.10372
8.74	12.875
8.96	13.5316
9.18	11.0556
9.4	18.1368
9.62	4.41786
9.84	6.00837
10.06	10.2566
10.28	9.76665
10.5	16.3546
10.72	6.33085
10.94	1.83657
11.16	1.78649
11.38	15.9035
11.6	5.47979
11.82	5.30569
12.04	0.934483
12.26	2.05216
12.48	14.35
12.7	16.553
12.92	8.41433
13.14	4.38031
13.36	22.4155
13.58	12.8524
13.8	18.5725
14.02	7.84814
14.24	0.041788
14.46	4.10454
14.68	0.223635
14.9	18.4238
15.12	1.73161
15.34	26.2788
15.56	9.25574
15.78	0.666367
16	2.28569
16.22	9.17073
16.44	7.03829
16.66	10.9267
16.88	7.74948
17.1	18.545
17.32	19.2864
17.54	17.353
17.76	9.33511
17.98	13.609
18.2	2.36753
18.42	11.0121
18.64	8.58079
18.86	13.5477
19.08	4.9156
19.3	10.9595
19.52	6.91807
19.74	16.4185
19.96	7.58868
20.18	9.06419
20.4	8.00274
20.62	21.6759
20.84	9.75569
21.06	13.2462
21.28	16.2771
21.5	16.3073
21.72	17.0785
21.94	11.5423
22.16	6.96722
22.38	11.6205
22.6	18.0332
22.82	19.6669
23.04	24.085
23.26	13.1725
23.48	5.13894
23.7	5.11454
23.92	48.3662
24.14	12.0153
24.36	14.2886
24.58	0.289003
24.8	0.658916
25.02	11.9848
25.24	16.1942
25.46	51.1159
25.68	37.5968
25.9	14.9998
26.12	14.0435
26.34	4.62122
26.56	1.12715
26.78	9.18684
27	9.45284
27.22	7.76425
27.44	14.2667
27.66	8.27855
27.88	13.5765
28.1	6.83183
28.32	4.13918
28.54	0.798328
28.76	6.56305
28.98	0.205215
29.2	16.9085
29.42	17.9439
29.64	11.8746
29.86	69.3862
30.08	6.64936
30.3	1.43003
30.52	1.41086
30.74	15.9323
30.96	10.8898
31.18	10.8677
31.4	4.8416
31.62	0.997158
31.84	8.63248
32.06	3.31544
32.28	52.3452
32.5	41.2045
32.72	3.70373
32.94	0.073851
33.16	1.41658
33.38	4.84244
33.6	13.5955
33.82	12.773
34.04	1.29706
34.26	9.16767
34.48	13.4967
34.7	8.67836
34.92	0.968702
35.14	8.84806
35.36	6.36421
35.58	21.0336
35.8	100.368
36.02	11.5885
36.24	7.0738
36.46	39.1275
36.68	61.576
36.9	13.4552
37.12	2.18665
37.34	2.14477
37.56	3.1809
37.78	6.37019
38	5.81889
38.22	19.1193
38.44	38.946
38.66	6.05059
38.88	22.7144
39.1	14.3007
39.32	6.80846
39.54	17.1895
39.76	41.1566
39.98	10.158
40.2	45.7719
40.42	7.97417
40.64	5.08138
40.86	5.35402
41.08	5.73148
41.3	15.4262
41.52	5.0309
41.74	9.31935
41.96	23.4053
42.18	8.9539
42.4	23.6033
42.62	2.05002
42.84	1.75197
43.06	7.17458
43.28	2.07394
43.5	1.04667
43.72	12.3369
43.94	0.457479
44.16	13.1514
44.38	10.7735
44.6	18.7208
44.82	10.1832
45.04	0.31852
45.26	10.2174
45.48	8.55899
45.7	3.32766
45.92	11.1015
46.14	7.40204
46.36	21.417
46.58	5.68613
46.8	12.9645
47.02	7.07064
47.24	18.0638
47.46	13.0868
47.68	11.7543
47.9	6.0099
48.12	18.2214
48.34	7.18083
48.56	14.9715
48.78	11.24
49	10.0737
49.22	13.8695
49.44	5.58916
49.66	7.18852
49.88	18.0153
50.1	11.8049
50.32	15.4819
50.54	12.3942
50.76	8.43038
50.98	10.2633
51.2	5.7159
51.42	19.4986
51.64	10.4687
51.86	4.67672
52.08	0.928026
52.3	74.2678
52.52	33.5058
52.74	24.6264
52.96	14.3034
53.18	24.2237
53.4	9.20232
53.62	6.22501
53.84	6.28185
54.06	6.24505
54.28	11.796
54.5	7.88573
54.72	29.5971
54.94	25.5049
55.16	10.0163
55.38	3.55208
55.6	14.439
55.82	16.1094
56.04	17.1517
56.26	30.4834
56.48	8.3688
56.7	18.5346
56.92	13.0599
57.14	10.2203
57.36	1.41161
57.58	5.55204
57.8	12.7682
58.02	6.14739
58.24	0.160921
58.46	2.8243
58.68	25.0066
58.9	28.5572
59.12	17.5362
59.34	5.46133
59.56	9.43841
59.78	2.05319
60	8.1728
60.22	11.8749
60.44	22.3416
60.66	2.43006
60.88	3.05523
61.1	25.9719
61.32	18.1778
61.54	2.74153
61.76	15.3794
61.98	61.0899
62.2	2.9258
62.42	1.81384
62.64	24.3036
62.86	41.9158
63.08	4.34323
63.3	18.157
63.52	3.25471
63.74	7.02697
63.96	10.7524
64.18	9.22841
64.4	10.5273
64.62	7.74759
64.84	17.6793
65.06	17.7354
65.28	12.8593
65.5	8.22136
65.72	13.9788
65.94	8.79843
66.16	11.6202
66.38	7.22727
66.6	18.0972
66.82	14.0129
67.04	57.8064
67.26	10.6836
67.48	18.7958
67.7	15.3603
67.92	11.628
68.14	5.92536
68.36	3.84364
68.58	12.7938
68.8	6.8029
69.02	3.96412
69.24	16.9828
69.46	25.9256
69.68	46.6203
69.9	15.6535
70.12	6.62908
70.34	5.97245
70.56	12.8376
70.78	12.1264
71	3.38655
71.22	4.57688
71.44	19.317
71.66	23.8521
71.88	9.08046
72.1	0.816677
72.32	10.7594
72.54	6.949
72.76	14.4203
72.98	29.4976
73.2	19.4617
73.42	7.68332
73.64	22.8449
73.86	7.73716
74.08	3.89428
74.3	8.67953
74.52	5.21016
74.74	1.96473
74.96	6.71655
75.18	0.633467
75.4	12.1741
75.62	14.1513
75.84	20.8477
76.06	9.97425
76.28	13.5598
76.5	19.5071
76.72	6.71922
76.94	6.29385
77.16	5.58472
77.38	4.07759
77.6	2.03406
77.82	5.37007
78.04	3.38023
78.26	11.7685
78.48	13.1574
78.7	0.309433
78.92	4.81299
79.14	4.02879
79.36	19.2527
79.58	6.37397
79.8	18.2599
80.02	7.26163
80.24	13.3081
80.46	10.0046
80.68	25.0479
80.9	26.4628
81.12	5.93303
81.34	9.43887
81.56	8.67851
81.78	7.0941
82	13.549
82.22	6.00594
82.44	12.723
82.66	22.5944
82.88	3.78039
83.1	15.8425
83.32	7.45386
83.54	7.63097
83.76	8.68075
83.98	23.6433
84.2	13.4395
84.42	3.39779
84.64	3.89025
84.86	13.9386
85.08	15.5944
85.3	7.32037
85.52	17.7187
85.74	20.2085
85.96	6.33609
86.18	8.46502
86.4	28.0299
86.62	17.5756
86.84	13.8004
87.06	11.9161
87.28	9.43451
87.5	12.8914
87.72	16.143
87.94	10.5634
88.16	7.31461
88.38	4.04117
88.6	1.93916
88.82	27.9864
89.04	11.0127
89.26	11.6483
89.48	9.0717
89.7	7.00846
89.92	9.45209
