Measurement: Powder, Xray Data XY Processed
Mineral: Grossular
Rruff sample: R060442
Ideal chemistry: Ca_3_Al_2_(SiO_4_)_3_
Locality: Pakistan(?)
Source: Gemological Institute of America
Description: Orange crystals
Diffraction sample description: Powder
Measured chemistry: (Ca_2.85_Fe^2+^_0.15_)_Σ=3_(Al_1.85_Fe^3+^_0.15_)_Σ=2_(Si_1.00_O_4_)_3_; trace amounts of Ti, Mg
Cell parameters: a: 11.8553(1) b: 11.8553(1) c: 11.8553(1) alpha: 90. beta: 90. gamma: 90. volume: 1666.27(6) crystal system: cubic
x	intensity
5	0
5.22	18.73
5.44	10.266
5.66	0.203
5.88	7.147
6.1	5.852
6.32	12.059
6.54	11.968
6.76	4.045
6.98	14.218
7.2	12.278
7.42	9.837
7.64	7.329
7.86	1.025
8.08	9.012
8.3	1.865
8.52	2.532
8.74	1.685
8.96	7.596
9.18	9.337
9.4	0.015
9.62	3.711
9.84	6.306
10.06	1.458
10.28	8.769
10.5	8.228
10.72	5.379
10.94	4.411
11.16	2.11
11.38	5.996
11.6	11.395
11.82	3.463
12.04	7.439
12.26	4.302
12.48	10.408
12.7	16.783
12.92	7.547
13.14	7.929
13.36	5.054
13.58	6.322
13.8	12.413
14.02	13.523
14.24	6.784
14.46	5.909
14.68	4.077
14.9	3.216
15.12	8.062
15.34	7.32
15.56	7.121
15.78	15.126
16	4.045
16.22	4.345
16.44	4.202
16.66	5.161
16.88	7.168
17.1	1.076
17.32	8.233
17.54	3.488
17.76	2.199
17.98	9.334
18.2	4.536
18.42	8.831
18.64	2.615
18.86	2.766
19.08	6.756
19.3	9.015
19.52	4.359
19.74	6.37
19.96	6.177
20.18	11.191
20.4	6.495
20.62	8.382
20.84	0.773
21.06	6.219
21.28	1.182
21.5	7.168
21.72	7.377
21.94	7.078
22.16	4.344
22.38	7.369
22.6	7.677
22.82	0.658
23.04	12.47
23.26	6.346
23.48	9.508
23.7	8.418
23.92	8.391
24.14	3.158
24.36	6.029
24.58	4.603
24.8	3.361
25.02	14.292
25.24	2.111
25.46	0.874
25.68	9.097
25.9	0.818
26.12	8.937
26.34	4.034
26.56	5.028
26.78	4.244
27	5.499
27.22	7.698
27.44	3.373
27.66	7.123
27.88	0.528
28.1	8.255
28.32	0.096
28.54	5.026
28.76	5.747
28.98	6.575
29.2	10.197
29.42	15.975
29.64	1.327
29.86	4.875
30.08	37.522
30.3	33.759
30.52	13.88
30.74	1.936
30.96	6.1
31.18	5.096
31.4	5.296
31.62	7.314
31.84	6.456
32.06	6.334
32.28	5.299
32.5	6.133
32.72	0.431
32.94	0.705
33.16	9.105
33.38	15.045
33.6	15.094
33.82	767.827
34.04	22.782
34.26	6.377
34.48	1.216
34.7	5.303
34.92	5.379
35.14	2.818
35.36	11.334
35.58	27.039
35.8	1.898
36.02	0.877
36.24	7.938
36.46	4.121
36.68	0.759
36.9	8.832
37.12	93.763
37.34	12.644
37.56	5.172
37.78	6.625
38	6.286
38.22	8.192
38.44	5.326
38.66	10.351
38.88	22.647
39.1	8.83
39.32	9.034
39.54	8.265
39.76	2.693
39.98	4.871
40.2	9.035
40.42	8.856
40.64	7.91
40.86	4.828
41.08	10.046
41.3	2.956
41.52	11.188
41.74	114.067
41.96	10.792
42.18	4.673
42.4	12.665
42.62	8.751
42.84	3.94
43.06	7.003
43.28	22.149
43.5	12.173
43.72	3.294
43.94	17.318
44.16	6.486
44.38	1.155
44.6	2.026
44.82	6.196
45.04	1.381
45.26	4.238
45.48	8.827
45.7	12.649
45.92	1.44
46.14	13.26
46.36	1.749
46.58	4.514
46.8	2.128
47.02	15.863
47.24	107.539
47.46	19.267
47.68	10.314
47.9	0.954
48.12	5.966
48.34	5.262
48.56	10.377
48.78	4.572
49	12.859
49.22	13.941
49.44	9.38
49.66	3.612
49.88	12.909
50.1	6.88
50.32	7.69
50.54	8.812
50.76	5.787
50.98	7.806
51.2	3.99
51.42	2.178
51.64	9.087
51.86	3.029
52.08	9.857
52.3	7.642
52.52	2.556
52.74	7.426
52.96	5.211
53.18	5.255
53.4	6.561
53.62	23.155
53.84	12.997
54.06	9.9
54.28	9.283
54.5	12.585
54.72	2.53
54.94	4.485
55.16	1.553
55.38	9.587
55.6	3.291
55.82	14.963
56.04	60.745
56.26	10.925
56.48	4.749
56.7	2.196
56.92	7.754
57.14	16.69
57.36	3.679
57.58	7.569
57.8	3.744
58.02	0.729
58.24	177.199
58.46	21.506
58.68	9.325
58.9	6.67
59.12	7.803
59.34	4.259
59.56	4.544
59.78	9.732
60	6.182
60.22	2.068
60.44	4.111
60.66	13.776
60.88	3.615
61.1	2.601
61.32	4.65
61.54	3.47
61.76	7.985
61.98	4.058
62.2	6.911
62.42	0.496
62.64	19.503
62.86	22.406
63.08	1.397
63.3	3.749
63.52	1.176
63.74	18.885
63.96	16.131
64.18	7.371
64.4	2.587
64.62	6.682
64.84	7.09
65.06	9.088
65.28	15.198
65.5	4.204
65.72	8.876
65.94	4.043
66.16	5.608
66.38	10.465
66.6	3.405
66.82	11.382
67.04	6.4
67.26	6.472
67.48	5.525
67.7	8.433
67.92	3.428
68.14	0.543
68.36	0.919
68.58	5.049
68.8	10.144
69.02	1.198
69.24	1.147
69.46	1.88
69.68	8.373
69.9	8.224
70.12	8.098
70.34	11.11
70.56	3.986
70.78	7.764
71	17.608
71.22	19.913
71.44	4.132
71.66	8.296
71.88	8.436
72.1	7.481
72.32	5.58
72.54	8.667
72.76	4.538
72.98	17.571
73.2	20.447
73.42	21.916
73.64	12.378
73.86	2.138
74.08	7.863
74.3	7.746
74.52	6.011
74.74	0.001
74.96	9.051
75.18	22.073
75.4	15.256
75.62	1.402
75.84	6.223
76.06	10.24
76.28	12.391
76.5	5.74
76.72	6.039
76.94	0.879
77.16	6.815
77.38	2.842
77.6	6.817
77.82	2.919
78.04	2.703
78.26	3.398
78.48	6.655
78.7	2.577
78.92	16.311
79.14	7.053
79.36	10.113
79.58	9.125
79.8	7.12
80.02	6.722
80.24	6.546
80.46	4.736
80.68	5.857
80.9	10.752
81.12	6.81
81.34	0.918
81.56	1.166
81.78	11.427
82	7.523
82.22	8.374
82.44	4.231
82.66	6.384
82.88	9.155
83.1	13.051
83.32	9.843
83.54	13.776
83.76	3.69
83.98	12.44
84.2	3.343
84.42	4.529
84.64	4.728
84.86	2.483
85.08	0.376
85.3	2.203
85.52	6.883
85.74	5.331
85.96	9.487
86.18	8.531
86.4	1.792
86.62	5.307
86.84	6.45
87.06	9.385
87.28	7.441
87.5	6.329
87.72	3.912
87.94	1.805
88.16	6.309
88.38	6.104
88.6	2.055
88.82	45.018
89.04	15.881
89.26	7.534
89.48	6.72
89.7	5.315
89.92	8.023
