Measurement: Powder, Xray Data XY Processed
Mineral: Grossular
Rruff sample: R060444
Ideal chemistry: Ca_3_Al_2_(SiO_4_)_3_
Locality: Pakistan (?)
Source: Gemological Institute of America
Description: Tan colored crystals coating a surface
Diffraction sample description: Powder
Measured chemistry: (Ca_2.98_Mn_0.02_)_Σ=3_(Al_1.84_Fe^3+^_0.13_Ti_0.03_)_Σ=2_((Si_0.99_Al_0.01_)_Σ=1_O_4_)_3_
Cell parameters: a: 11.8579(2) b: 11.8579(2) c: 11.8579(2) alpha: 90. beta: 90. gamma: 90. volume: 1667.35(7) crystal system: cubic
x	intensity
5	0
5.22	7.829
5.44	17.043
5.66	4.114
5.88	8.863
6.1	7.667
6.32	0.086
6.54	4.9
6.76	13.102
6.98	2.459
7.2	6.689
7.42	5.696
7.64	11.725
7.86	9.298
8.08	7.25
8.3	9.733
8.52	3.773
8.74	14.693
8.96	6.728
9.18	12.725
9.4	0.538
9.62	5.615
9.84	9.224
10.06	1.862
10.28	0.089
10.5	12.488
10.72	1.63
10.94	4.95
11.16	1.518
11.38	8.669
11.6	0.73
11.82	8.929
12.04	6.059
12.26	11.674
12.48	5.649
12.7	10.975
12.92	2.093
13.14	3.428
13.36	5.708
13.58	8.851
13.8	0.094
14.02	4.229
14.24	0.452
14.46	9.72
14.68	6.738
14.9	8.924
15.12	9.715
15.34	2.84
15.56	6.151
15.78	4.304
16	3.345
16.22	0.472
16.44	4.688
16.66	8.743
16.88	5.029
17.1	2.078
17.32	1.335
17.54	10.535
17.76	2.267
17.98	10.272
18.2	6.254
18.42	2.213
18.64	4.096
18.86	21.032
19.08	3.059
19.3	4.788
19.52	4.805
19.74	5.964
19.96	7.847
20.18	7.093
20.4	9.334
20.62	2.395
20.84	2.542
21.06	2.868
21.28	5.067
21.5	2.261
21.72	7.271
21.94	2.409
22.16	6.14
22.38	5.1
22.6	5.106
22.82	8.949
23.04	4.823
23.26	3.927
23.48	9.7
23.7	5.724
23.92	10.598
24.14	8.534
24.36	4.455
24.58	4.451
24.8	8.444
25.02	7.74
25.24	3.856
25.46	5.732
25.68	14.84
25.9	5.944
26.12	3.786
26.34	7.813
26.56	2.816
26.78	4.848
27	3.707
27.22	10.779
27.44	8.517
27.66	6.3
27.88	2.458
28.1	2.261
28.32	4.017
28.54	5.112
28.76	5.941
28.98	0.766
29.2	6.614
29.42	4.536
29.64	3.459
29.86	0.705
30.08	36.652
30.3	30.505
30.52	16.597
30.74	0.726
30.96	1.086
31.18	3.217
31.4	2.525
31.62	5.604
31.84	4.712
32.06	4.37
32.28	1.838
32.5	0.608
32.72	2.323
32.94	1.038
33.16	0.458
33.38	8.072
33.6	22.085
33.82	641.666
34.04	22.525
34.26	0.447
34.48	3.336
34.7	3.224
34.92	8.397
35.14	10.998
35.36	1.605
35.58	27.873
35.8	4.939
36.02	6.751
36.24	4.835
36.46	13.918
36.68	2.792
36.9	7.716
37.12	86.323
37.34	5.466
37.56	10.908
37.78	1.227
38	6.476
38.22	6.4
38.44	3.69
38.66	31.75
38.88	16.847
39.1	6.958
39.32	4.325
39.54	2.448
39.76	1.356
39.98	1.502
40.2	4.707
40.42	6.948
40.64	7.915
40.86	8.705
41.08	10.86
41.3	7.878
41.52	2.808
41.74	70.083
41.96	12.035
42.18	3.068
42.4	6.139
42.62	4.196
42.84	5.167
43.06	4.269
43.28	6.398
43.5	10.563
43.72	7.603
43.94	2.328
44.16	8.3
44.38	2.457
44.6	5.741
44.82	7.822
45.04	4.829
45.26	2.819
45.48	7.824
45.7	5.853
45.92	11.56
46.14	4.471
46.36	1.4
46.58	2.363
46.8	4.088
47.02	8.104
47.24	121.393
47.46	18.397
47.68	6.422
47.9	9.605
48.12	0.674
48.34	5.963
48.56	18.117
48.78	0.636
49	8.727
49.22	6.722
49.44	4.683
49.66	4.375
49.88	3.42
50.1	5.657
50.32	8.497
50.54	2.297
50.76	0.987
50.98	1.038
51.2	3.491
51.42	2.395
51.64	2.37
51.86	7.245
52.08	4.154
52.3	10.872
52.52	6.676
52.74	0.991
52.96	3.155
53.18	6.353
53.4	8.217
53.62	35.441
53.84	6.649
54.06	2.607
54.28	0.331
54.5	7.612
54.72	8.601
54.94	6.559
55.16	7.174
55.38	0.28
55.6	4.231
55.82	45.224
56.04	57.05
56.26	0.321
56.48	3.37
56.7	0.453
56.92	3.353
57.14	4.174
57.36	3.037
57.58	3.903
57.8	1.631
58.02	14.288
58.24	141.318
58.46	22.527
58.68	8.648
58.9	1.71
59.12	2.029
59.34	0.594
59.56	5.735
59.78	3.067
60	6.205
60.22	4.565
60.44	2.903
60.66	9.884
60.88	8.819
61.1	2.753
61.32	1.214
61.54	0.596
61.76	8.313
61.98	2.257
62.2	6.513
62.42	5.651
62.64	40.35
62.86	22.187
63.08	6.498
63.3	4.565
63.52	4.699
63.74	13.743
63.96	3.831
64.18	3.925
64.4	2.102
64.62	2.878
64.84	3.851
65.06	3.055
65.28	10.191
65.5	2.982
65.72	7.937
65.94	0.102
66.16	10.275
66.38	8.33
66.6	6.31
66.82	9.533
67.04	6.498
67.26	5.673
67.48	5.645
67.7	7.763
67.92	1.856
68.14	4.122
68.36	12.231
68.58	13.899
68.8	6.276
69.02	11.199
69.24	11.83
69.46	4.667
69.68	4.372
69.9	0.229
70.12	1.88
70.34	4.528
70.56	3.337
70.78	2.589
71	24.484
71.22	18.035
71.44	3.939
71.66	2.834
71.88	5.822
72.1	2.607
72.32	1.521
72.54	1.746
72.76	9.721
72.98	14.917
73.2	33.344
73.42	12.556
73.64	4.566
73.86	3.776
74.08	7.796
74.3	6.794
74.52	7.911
74.74	7.266
74.96	0.883
75.18	20.11
75.4	12.003
75.62	10.124
75.84	3.315
76.06	7.42
76.28	11.462
76.5	4.934
76.72	9.224
76.94	8.294
77.16	8.21
77.38	2.249
77.6	2.625
77.82	0.646
78.04	6.43
78.26	3.211
78.48	3.255
78.7	6.151
78.92	5.752
79.14	2.526
79.36	4.368
79.58	3.434
79.8	1.525
80.02	11.598
80.24	7.666
80.46	4.53
80.68	2.582
80.9	3.394
81.12	14.528
81.34	8.841
81.56	0.842
81.78	3.816
82	6.749
82.22	0.34
82.44	9.451
82.66	2.666
82.88	16.648
83.1	7.797
83.32	3.739
83.54	4.967
83.76	4.955
83.98	7.081
84.2	11.274
84.42	1.546
84.64	6.661
84.86	7.752
85.08	4.724
85.3	1.779
85.52	10.098
85.74	5.218
85.96	6.035
86.18	1.136
86.4	12.91
86.62	2.716
86.84	1.528
87.06	6.34
87.28	8.22
87.5	5.978
87.72	4.636
87.94	5
88.16	5.833
88.38	1.83
88.6	10.778
88.82	42.645
89.04	28.431
89.26	7.456
89.48	5.674
89.7	9.359
89.92	6.982
