Measurement: Powder, Xray Data XY Processed
Mineral: Grossular
Rruff sample: R060382
Ideal chemistry: Ca_3_Al_2_(SiO_4_)_3_
Locality: Lalatema, near Mount Kilimanjaro, Tanzania
Source: Herb Obodda
Description: Pale tan colored fragment
Diffraction sample description: Powder
Measured chemistry: (Ca_2.95_Mg_0.03_Mn_0.02_)_Σ=3_Al_2.00_((Si_0.99_Ti_0.01_)_Σ=1_O_4_)_3_; trace amounts of Fe
Cell parameters: a: 11.8526(1) b: 11.8526(1) c: 11.8526(1) alpha: 90. beta: 90. gamma: 90. volume: 1665.11(4) crystal system: cubic
x	intensity
5	0
5.22	13.3
5.44	6.319
5.66	8.265
5.88	6.18
6.1	1.583
6.32	9.037
6.54	8.783
6.76	8.098
6.98	7.483
7.2	3.314
7.42	7.155
7.64	9.559
7.86	8.953
8.08	3.279
8.3	4.668
8.52	1.754
8.74	9.438
8.96	3.617
9.18	8.029
9.4	11.509
9.62	7.814
9.84	4.747
10.06	6.826
10.28	3.095
10.5	11.98
10.72	5.793
10.94	6.112
11.16	5.598
11.38	10.186
11.6	12.136
11.82	7.212
12.04	18.487
12.26	14.51
12.48	12.456
12.7	6.563
12.92	6.34
13.14	4.605
13.36	9.219
13.58	6.582
13.8	12.817
14.02	13.322
14.24	9.096
14.46	1.444
14.68	6.324
14.9	15.397
15.12	10.017
15.34	15.631
15.56	13.037
15.78	1.715
16	8.748
16.22	10.808
16.44	12.913
16.66	19.85
16.88	15.97
17.1	0.9
17.32	6.152
17.54	16.364
17.76	15.877
17.98	12.778
18.2	17.119
18.42	6.484
18.64	6.025
18.86	9.691
19.08	11.911
19.3	0.811
19.52	3.717
19.74	10.372
19.96	7.121
20.18	9.454
20.4	11.825
20.62	5.45
20.84	15.859
21.06	14.159
21.28	11.164
21.5	11.84
21.72	9.274
21.94	17.406
22.16	9.259
22.38	5.099
22.6	1.279
22.82	2.506
23.04	15.552
23.26	3.379
23.48	15.341
23.7	13.623
23.92	19.143
24.14	1.902
24.36	12.664
24.58	6.516
24.8	8.17
25.02	11.637
25.24	11.54
25.46	10.957
25.68	7.004
25.9	9.625
26.12	16.962
26.34	1.35
26.56	19.444
26.78	28.415
27	8.97
27.22	12.374
27.44	13.755
27.66	9.807
27.88	1.064
28.1	3.045
28.32	9.122
28.54	8.093
28.76	11.311
28.98	6.124
29.2	1.074
29.42	10.233
29.64	11.031
29.86	12.027
30.08	52.187
30.3	16.812
30.52	11.837
30.74	8.274
30.96	10.525
31.18	10.635
31.4	1.863
31.62	2.192
31.84	6.895
32.06	12.821
32.28	4.636
32.5	12.063
32.72	11.084
32.94	9.106
33.16	9.564
33.38	4.329
33.6	26.101
33.82	543.314
34.04	30.444
34.26	8.402
34.48	13.612
34.7	0.9
34.92	11.136
35.14	4.138
35.36	8.812
35.58	21.263
35.8	6.683
36.02	2.584
36.24	13.556
36.46	5.84
36.68	5.002
36.9	8.198
37.12	93.037
37.34	0.2
37.56	0.123
37.78	0.119
38	1.617
38.22	5.902
38.44	13.231
38.66	22.347
38.88	11.723
39.1	2.256
39.32	6.43
39.54	10.533
39.76	4.485
39.98	13.353
40.2	6.147
40.42	1.386
40.64	17.06
40.86	6.165
41.08	0.406
41.3	0.319
41.52	7.688
41.74	61.767
41.96	4.799
42.18	9.828
42.4	13.903
42.62	13.509
42.84	9.887
43.06	13.193
43.28	23.334
43.5	7.42
43.72	15.964
43.94	14.664
44.16	18.743
44.38	6.035
44.6	5.998
44.82	6.456
45.04	3.661
45.26	9.773
45.48	11.339
45.7	1.709
45.92	5.99
46.14	15.047
46.36	13.839
46.58	4.324
46.8	12.949
47.02	16.231
47.24	127.355
47.46	14.324
47.68	13.75
47.9	9.79
48.12	9.358
48.34	3.679
48.56	21.173
48.78	1.581
49	3.235
49.22	3.771
49.44	6.358
49.66	9.689
49.88	8.929
50.1	11.469
50.32	8.81
50.54	7.71
50.76	7.843
50.98	17.806
51.2	5.904
51.42	8.328
51.64	9.232
51.86	5.133
52.08	11.27
52.3	8.089
52.52	6.759
52.74	7.483
52.96	6.349
53.18	10.512
53.4	19.551
53.62	10.371
53.84	8.875
54.06	7.938
54.28	6.176
54.5	0.998
54.72	9.116
54.94	1.178
55.16	6.186
55.38	3.433
55.6	6.631
55.82	5.955
56.04	59.129
56.26	9.574
56.48	5.49
56.7	1.202
56.92	6.426
57.14	0.446
57.36	15.468
57.58	16.67
57.8	5.772
58.02	16.404
58.24	85.033
58.46	12.283
58.68	13.105
58.9	8.298
59.12	9.138
59.34	1.336
59.56	5.686
59.78	3.938
60	9.122
60.22	5.271
60.44	5.498
60.66	6.94
60.88	13.926
61.1	2.095
61.32	4.386
61.54	10.507
61.76	5.53
61.98	0.843
62.2	9.843
62.42	5.659
62.64	43.522
62.86	19.568
63.08	4.635
63.3	0.557
63.52	10.151
63.74	10.334
63.96	10.622
64.18	0.323
64.4	14.407
64.62	6.408
64.84	3.539
65.06	2.555
65.28	0.667
65.5	4.666
65.72	10.697
65.94	4.681
66.16	6.436
66.38	8.693
66.6	5.989
66.82	6.25
67.04	7.231
67.26	7.339
67.48	4.571
67.7	3.5
67.92	4.631
68.14	6.381
68.36	8.372
68.58	3.483
68.8	9.359
69.02	3.243
69.24	2.123
69.46	0.212
69.68	9.383
69.9	8.275
70.12	6.345
70.34	10.312
70.56	0.626
70.78	3.164
71	9.008
71.22	9.109
71.44	11.015
71.66	7.853
71.88	13.752
72.1	5.426
72.32	5.234
72.54	6.245
72.76	3.169
72.98	8.834
73.2	14.202
73.42	14.098
73.64	1.153
73.86	2.461
74.08	5.475
74.3	11.556
74.52	7.735
74.74	0.255
74.96	4.362
75.18	12.446
75.4	16.838
75.62	5.984
75.84	1.181
76.06	8.12
76.28	6.927
76.5	10.987
76.72	5.147
76.94	5.92
77.16	3.861
77.38	5.93
77.6	1.912
77.82	3.566
78.04	0.386
78.26	15.467
78.48	12.73
78.7	0.496
78.92	0.307
79.14	5.34
79.36	5.352
79.58	5.412
79.8	4.555
80.02	7.64
80.24	4.974
80.46	14.865
80.68	9.143
80.9	1.827
81.12	6.124
81.34	6.144
81.56	2.232
81.78	4.122
82	8.046
82.22	4.916
82.44	4.904
82.66	5.697
82.88	6.984
83.1	4.966
83.32	11.086
83.54	9.025
83.76	5.951
83.98	5.963
84.2	9.005
84.42	3.931
84.64	3.224
84.86	3.172
85.08	4.061
85.3	13.185
85.52	11.222
85.74	7.198
85.96	7.195
86.18	11.349
86.4	6.776
86.62	2.212
86.84	2.726
87.06	6.489
87.28	7.588
87.5	1.53
87.72	7.087
87.94	3.79
88.16	2.622
88.38	5.649
88.6	7.471
88.82	30.946
89.04	10.858
89.26	9.72
89.48	2.09
89.7	2.239
89.92	11.478
