Measurement: Powder, Xray Data XY Processed
Mineral: Muscovite
Rruff sample: R050080
Ideal chemistry: KAl_2_(Si_3_Al)O_10_(OH)_2_
Locality: Brazil
Source: Rock Currier
Description: Tan colored micaceous crystals of 2M1 polytype
Diffraction sample description: Powder
Measured chemistry: (K_0.93_Na_0.07_)(Al_0.99_Fe^3+^_0.01_)_2_(Si_3.00_Al_1.00_)O_10_((OH)_0.97_F_0.03_)_2_
Cell parameters: a: 5.177(2) b: 8.994(3) c: 20.146(3) alpha: 90. beta: 95.70(2) gamma: 90. volume: 933.6(5) crystal system: monoclinic
x	intensity
5	0
5.22	24.751
5.44	6.507
5.66	0.058
5.88	1.539
6.1	5.729
6.32	16.748
6.54	1.124
6.76	11.092
6.98	8.733
7.2	5.259
7.42	7.754
7.64	2.198
7.86	13.622
8.08	1.979
8.3	9.116
8.52	10.642
8.74	55.703
8.96	46.158
9.18	9.995
9.4	1.752
9.62	0.937
9.84	11.699
10.06	4.545
10.28	8.421
10.5	5.803
10.72	5.7
10.94	5.266
11.16	3.87
11.38	4.197
11.6	0.62
11.82	2.412
12.04	8.659
12.26	11.137
12.48	12.626
12.7	11.726
12.92	2.994
13.14	5.909
13.36	3.047
13.58	9.132
13.8	4.094
14.02	6.962
14.24	15.914
14.46	9.184
14.68	4.966
14.9	2.63
15.12	5.941
15.34	0.783
15.56	12.772
15.78	0.125
16	6.005
16.22	10.035
16.44	2.949
16.66	6.819
16.88	6.572
17.1	7.694
17.32	0.327
17.54	2.068
17.76	94.187
17.98	14.322
18.2	8.166
18.42	6.911
18.64	6.873
18.86	2.785
19.08	11.684
19.3	10.571
19.52	8.341
19.74	1.614
19.96	42.25
20.18	9.207
20.4	2.174
20.62	11.118
20.84	4.24
21.06	2.717
21.28	4.255
21.5	6.222
21.72	19.191
21.94	2.191
22.16	12.351
22.38	0.659
22.6	14.754
22.82	3.736
23.04	29.132
23.26	6.187
23.48	1.077
23.7	8.907
23.92	31.092
24.14	17.853
24.36	7.39
24.58	5.546
24.8	3.499
25.02	4.099
25.24	2.542
25.46	31.341
25.68	51.364
25.9	9.545
26.12	7.406
26.34	1.672
26.56	34.571
26.78	124.562
27	12.711
27.22	1.804
27.44	4.556
27.66	5.895
27.88	39.288
28.1	14.007
28.32	6.574
28.54	13.488
28.76	22.506
28.98	3.418
29.2	4.771
29.42	15.804
29.64	11.672
29.86	52.233
30.08	17.649
30.3	5.926
30.52	0.704
30.74	4.27
30.96	8.158
31.18	19.151
31.4	23.53
31.62	16.714
31.84	11.118
32.06	18.482
32.28	7.099
32.5	7.743
32.72	4.346
32.94	5.519
33.16	1.084
33.38	9.98
33.6	3.749
33.82	2.12
34.04	1.31
34.26	2.752
34.48	14.482
34.7	17.795
34.92	21.285
35.14	100.389
35.36	39.659
35.58	19.054
35.8	27.153
36.02	3.322
36.24	4.803
36.46	5.021
36.68	4.3
36.9	17.74
37.12	4.305
37.34	7.261
37.56	6.606
37.78	24.32
38	12.825
38.22	7.31
38.44	10.143
38.66	1.613
38.88	10.317
39.1	4.701
39.32	6.898
39.54	7.026
39.76	4.572
39.98	11.394
40.2	6.506
40.42	14.507
40.64	7.061
40.86	5.768
41.08	11.82
41.3	4.161
41.52	10.441
41.74	6.801
41.96	12.038
42.18	9.391
42.4	1.432
42.62	10.853
42.84	2.381
43.06	6.343
43.28	25.127
43.5	41.794
43.72	16.412
43.94	8.801
44.16	8.225
44.38	9.755
44.6	5.433
44.82	0.78
45.04	3.967
45.26	72.335
45.48	12.883
45.7	2.318
45.92	6.155
46.14	3.572
46.36	2.008
46.58	9.876
46.8	7.678
47.02	2.993
47.24	19.164
47.46	6.288
47.68	6.456
47.9	4.542
48.12	2.994
48.34	10.21
48.56	2.17
48.78	9.259
49	4.288
49.22	8.988
49.44	3.068
49.66	5.128
49.88	4.244
50.1	7.441
50.32	8.006
50.54	13.752
50.76	1.664
50.98	9.663
51.2	8.562
51.42	8.018
51.64	7.79
51.86	6.545
52.08	6.351
52.3	21.13
52.52	28.912
52.74	28.389
52.96	20.441
53.18	7.629
53.4	11.013
53.62	4.16
53.84	7.302
54.06	1.329
54.28	9.405
54.5	8.279
54.72	10.064
54.94	2.62
55.16	6.748
55.38	0.64
55.6	13.766
55.82	8.898
56.04	13.576
56.26	12.156
56.48	1.121
56.7	8.736
56.92	7.77
57.14	14.062
57.36	20.164
57.58	37.591
57.8	18.77
58.02	8.2
58.24	10.788
58.46	2.263
58.68	5.717
58.9	2.774
59.12	13.612
59.34	6.727
59.56	3.872
59.78	2.922
60	20.405
60.22	6.449
60.44	0.313
60.66	8.886
60.88	6.649
61.1	6.429
61.32	1.857
61.54	10.145
61.76	11.245
61.98	16.171
62.2	0.269
62.42	1.614
62.64	4.711
62.86	1.905
63.08	4.446
63.3	4.223
63.52	1.454
63.74	8.078
63.96	7.069
64.18	0.154
64.4	1.306
64.62	5.546
64.84	5.387
65.06	9.35
65.28	5.103
65.5	4.275
65.72	6.026
65.94	6.451
66.16	11.207
66.38	11.494
66.6	12.314
66.82	10.887
67.04	2.402
67.26	6.147
67.48	2.087
67.7	9.879
67.92	7.869
68.14	11.782
68.36	21.931
68.58	8.897
68.8	10.756
69.02	8.797
69.24	14.951
69.46	2.24
69.68	10.488
69.9	8.823
70.12	19.037
70.34	3.478
70.56	0.937
70.78	13.446
71	6.809
71.22	3.001
71.44	2.379
71.66	14.688
71.88	0.085
72.1	0.193
72.32	7.172
72.54	4.215
72.76	8.306
72.98	3.387
73.2	9.111
73.42	3.098
73.64	5.303
73.86	3.316
74.08	5.406
74.3	12.355
74.52	9.264
74.74	8.154
74.96	5.972
75.18	1.539
75.4	2.195
75.62	0.181
75.84	16.869
76.06	4.306
76.28	6.891
76.5	4.507
76.72	9.489
76.94	3.753
77.16	3.778
77.38	15.926
77.6	0.475
77.82	4.668
78.04	8.842
78.26	4.051
78.48	7.281
78.7	4.482
78.92	3.623
79.14	3.615
79.36	1.783
79.58	7.958
79.8	4.019
80.02	8.838
80.24	7.068
80.46	1.241
80.68	0.652
80.9	6.406
81.12	9.511
81.34	2.549
81.56	12.439
81.78	9.668
82	6.763
82.22	4.787
82.44	3.631
82.66	5.366
82.88	12.003
83.1	1.118
83.32	2.943
83.54	4.918
83.76	3.901
83.98	8.899
84.2	2.613
84.42	3.193
84.64	3.911
84.86	7.376
85.08	9.478
85.3	2.587
85.52	4.832
85.74	6.914
85.96	1.938
86.18	3.751
86.4	7.762
86.62	7.583
86.84	9.417
87.06	2.318
87.28	7.877
87.5	8.818
87.72	1.886
87.94	2.795
88.16	10.875
88.38	0.091
88.6	3.181
88.82	1.128
89.04	0.673
89.26	9.572
89.48	1.771
89.7	1.291
89.92	1.962
