Measurement: Powder, Xray Data XY Processed
Mineral: Sodalite
Rruff sample: R040141
Ideal chemistry: Na_4_Si_3_Al_3_O_12_Cl
Locality: Princess Sodalite mine, Bancroft, Ontario, Canada
Source: University of Arizona Mineral Museum
Description: Blue grains in a coarsely crystalline rock
Diffraction sample description: Powder
Measured chemistry: Na_7.86_Al_6.00_Si_6.03_O_24_Cl_2.02_
Cell parameters: a: 8.88008(8) b: 8.88008(8) c: 8.88008(8) alpha: 90. beta: 90. gamma: 90. volume: 700.24(2) crystal system: cubic
x	intensity
5	0
5.22	8.30147
5.44	2.13248
5.66	11.9479
5.88	10.7055
6.1	2.99915
6.32	13.1263
6.54	0.402306
6.76	0.015532
6.98	17.9315
7.2	6.93612
7.42	8.22696
7.64	8.70647
7.86	1.07482
8.08	7.47907
8.3	9.95272
8.52	6.29896
8.74	0.883736
8.96	1.99331
9.18	3.29223
9.4	0.265079
9.62	10.0315
9.84	5.3545
10.06	5.61249
10.28	6.26156
10.5	5.44375
10.72	3.3449
10.94	3.4973
11.16	0.376927
11.38	7.37711
11.6	8.53409
11.82	3.5556
12.04	4.19992
12.26	3.83059
12.48	6.53784
12.7	5.71061
12.92	2.312
13.14	3.89532
13.36	4.59924
13.58	7.29176
13.8	13.0104
14.02	29.4918
14.24	195.176
14.46	10.6629
14.68	7.90333
14.9	5.3367
15.12	16.6827
15.34	1.29482
15.56	7.79945
15.78	3.3798
16	5.75515
16.22	4.20571
16.44	5.89983
16.66	6.14638
16.88	4.12373
17.1	4.18886
17.32	2.08362
17.54	1.127
17.76	7.01274
17.98	3.9835
18.2	3.89955
18.42	1.8649
18.64	6.70406
18.86	9.47941
19.08	2.41723
19.3	7.3456
19.52	1.57472
19.74	1.66265
19.96	20.0255
20.18	3.17485
20.4	5.43309
20.62	8.5302
20.84	8.58683
21.06	6.53392
21.28	3.54911
21.5	4.5341
21.72	6.56011
21.94	1.37422
22.16	34.3556
22.38	9.18741
22.6	1.10634
22.82	2.54981
23.04	2.9547
23.26	2.4782
23.48	2.04489
23.7	2.51597
23.92	10.9898
24.14	8.33382
24.36	21.1797
24.58	1616.68
24.8	80.1648
25.02	11.8792
25.24	6.91893
25.46	1.75728
25.68	1.60851
25.9	1.06384
26.12	5.41527
26.34	9.74322
26.56	12.0444
26.78	12.2353
27	6.64124
27.22	8.92047
27.44	14.0822
27.66	7.37348
27.88	5.99941
28.1	6.42942
28.32	7.53019
28.54	11.8259
28.76	10.104
28.98	7.23079
29.2	5.46692
29.42	9.52139
29.64	7.525
29.86	7.44339
30.08	2.36427
30.3	1.56176
30.52	3.22886
30.74	11.0516
30.96	1.84303
31.18	11.7269
31.4	9.73457
31.62	15.8324
31.84	33.4785
32.06	39.5104
32.28	10.7899
32.5	3.51282
32.72	4.61866
32.94	5.73658
33.16	0.2265
33.38	3.80146
33.6	7.86124
33.82	0.194638
34.04	2.06338
34.26	11.7687
34.48	6.96706
34.7	11.9408
34.92	22.7356
35.14	279.868
35.36	5.99245
35.58	4.37721
35.8	9.39315
36.02	3.42559
36.24	5.75961
36.46	2.84794
36.68	6.84667
36.9	9.51222
37.12	7.28738
37.34	0.027254
37.56	8.06195
37.78	22.9015
38	282.554
38.22	12.7043
38.44	0.179675
38.66	5.62524
38.88	12.6944
39.1	6.86749
39.32	5.27832
39.54	2.38823
39.76	3.38724
39.98	6.2287
40.2	0.434663
40.42	4.70405
40.64	27.8336
40.86	7.65226
41.08	2.57697
41.3	5.72597
41.52	2.6702
41.74	8.16138
41.96	1.91612
42.18	6.69626
42.4	1.40306
42.62	4.96192
42.84	4.61929
43.06	12.4945
43.28	646.584
43.5	43.7394
43.72	4.44647
43.94	1.03389
44.16	1.22652
44.38	3.4006
44.6	5.5531
44.82	4.68247
45.04	2.91224
45.26	5.37652
45.48	3.13431
45.7	83.0668
45.92	15.8486
46.14	5.72979
46.36	4.99418
46.58	2.85243
46.8	11.8167
47.02	4.80983
47.24	3.85778
47.46	1.932
47.68	0.277288
47.9	2.41406
48.12	52.9116
48.34	6.20772
48.56	13.4864
48.78	2.69307
49	6.92516
49.22	9.04335
49.44	2.13372
49.66	6.19156
49.88	3.13929
50.1	11.3553
50.32	47.881
50.54	40.855
50.76	7.84917
50.98	3.83875
51.2	1.8162
51.42	1.7679
51.64	2.78522
51.86	0.183122
52.08	0.859921
52.3	1.91052
52.52	16.8547
52.74	41.0479
52.96	0.180783
53.18	9.34848
53.4	33.5155
53.62	6.83436
53.84	0.212652
54.06	2.39621
54.28	5.67919
54.5	2.74496
54.72	8.75951
54.94	3.90819
55.16	5.72353
55.38	5.29187
55.6	3.06481
55.82	2.64621
56.04	1.47338
56.26	6.15008
56.48	5.05824
56.7	7.80133
56.92	26.9312
57.14	1.00511
57.36	2.91405
57.58	2.90709
57.8	6.9645
58.02	3.05778
58.24	4.16545
58.46	2.26192
58.68	13.5421
58.9	80.674
59.12	16.8643
59.34	5.69238
59.56	0.610413
59.78	8.22275
60	4.21815
60.22	1.78908
60.44	0.395368
60.66	5.62181
60.88	73.5119
61.1	14.4848
61.32	8.60427
61.54	3.32218
61.76	10.298
61.98	5.21206
62.2	8.11271
62.42	4.9735
62.64	13.2417
62.86	75.1219
63.08	15.7661
63.3	2.49516
63.52	5.98197
63.74	1.9625
63.96	7.06618
64.18	6.08177
64.4	5.13584
64.62	20.4055
64.84	49.5985
65.06	0.676113
65.28	6.87141
65.5	7.01147
65.72	3.21177
65.94	1.46102
66.16	12.8273
66.38	2.09777
66.6	12.9596
66.82	11.0878
67.04	7.99543
67.26	0.896525
67.48	5.68931
67.7	2.45188
67.92	2.52013
68.14	2.93959
68.36	5.99099
68.58	14.7368
68.8	0.875996
69.02	8.88235
69.24	11.816
69.46	5.75139
69.68	11.6994
69.9	0.788836
70.12	7.77586
70.34	73.5731
70.56	29.4403
70.78	2.36811
71	5.29093
71.22	1.16878
71.44	7.19723
71.66	0.749522
71.88	2.54326
72.1	35.6854
72.32	35.9733
72.54	6.07642
72.76	5.0395
72.98	1.95992
73.2	0.939383
73.42	3.03168
73.64	3.25939
73.86	3.28362
74.08	12.378
74.3	7.35696
74.52	0.759246
74.74	3.12894
74.96	5.33529
75.18	14.4177
75.4	5.65181
75.62	5.8419
75.84	1.04519
76.06	7.97264
76.28	16.0068
76.5	5.9341
76.72	2.86748
76.94	6.83364
77.16	6.94437
77.38	13.6806
77.6	16.5434
77.82	2.2591
78.04	4.96789
78.26	5.6677
78.48	3.46269
78.7	6.38668
78.92	1.57851
79.14	18.47
79.36	37.4359
79.58	29.447
79.8	0.359928
80.02	3.70652
80.24	6.87425
80.46	0.950848
80.68	0.123785
80.9	1.58348
81.12	7.28103
81.34	7.23866
81.56	2.26123
81.78	0.771365
82	5.07484
82.22	2.15281
82.44	4.39389
82.66	9.49513
82.88	8.64413
83.1	4.53015
83.32	3.65868
83.54	2.89458
83.76	1.97922
83.98	3.22533
84.2	16.3223
84.42	3.54311
84.64	6.46572
84.86	4.25785
85.08	10.0757
85.3	3.95126
85.52	2.17482
85.74	2.69011
85.96	3.69696
86.18	37.7875
86.4	15.6271
86.62	3.78968
86.84	7.58968
87.06	2.67706
87.28	9.85298
87.5	9.03676
87.72	1.23371
87.94	9.50165
88.16	1.75067
88.38	0.149102
88.6	1.84833
88.82	4.09621
89.04	3.99693
89.26	2.81973
89.48	8.43467
89.7	36.5973
89.92	6.73411
