Measurement: Powder, Xray Data XY Processed
Mineral: Sodalite
Rruff sample: R060354
Ideal chemistry: Na_4_Si_3_Al_3_O_12_Cl
Locality: Koksha Valley, Badakshan Province, Afghanistan
Source: Herb Obodda
Description: Pale purple transparent fragment
Diffraction sample description: Powder
Measured chemistry: (Na_0.99_K_0.01_)_8_Al_6.00_Si_6.00_O_24_Cl_2.00_
Cell parameters: a: 8.88144(5) b: 8.88144(5) c: 8.88144(5) alpha: 90. beta: 90. gamma: 90. volume: 700.56(1) crystal system: cubic
x	intensity
5	0
5.22	14.683
5.44	31.2452
5.66	15.5404
5.88	6.36128
6.1	0.619743
6.32	10.9834
6.54	0.660149
6.76	8.25628
6.98	6.43379
7.2	5.81674
7.42	8.40964
7.64	6.21294
7.86	2.64677
8.08	1.56784
8.3	5.16899
8.52	6.73885
8.74	11.9781
8.96	5.4154
9.18	9.8843
9.4	12.2111
9.62	8.50142
9.84	0.699671
10.06	6.06406
10.28	2.24147
10.5	6.70861
10.72	1.8819
10.94	2.35031
11.16	4.60881
11.38	9.0494
11.6	2.15928
11.82	5.31088
12.04	4.15439
12.26	7.51118
12.48	2.9079
12.7	0.061633
12.92	4.58268
13.14	4.52743
13.36	8.53042
13.58	2.49822
13.8	12.4422
14.02	29.4407
14.24	38.4062
14.46	8.37042
14.68	4.28594
14.9	10.9652
15.12	2.00058
15.34	7.14786
15.56	6.43346
15.78	4.52795
16	4.58412
16.22	6.84742
16.44	0.876122
16.66	5.07351
16.88	4.13456
17.1	4.08478
17.32	9.18708
17.54	2.32567
17.76	1.3234
17.98	2.24958
18.2	1.3032
18.42	1.29008
18.64	7.03546
18.86	1.01882
19.08	1.89103
19.3	3.94669
19.52	2.99183
19.74	4.09098
19.96	17.1403
20.18	11.188
20.4	12.3367
20.62	6.43038
20.84	5.49233
21.06	1.58809
21.28	3.68214
21.5	3.74865
21.72	4.069
21.94	0.217417
22.16	30.0612
22.38	18.154
22.6	0.826601
22.82	2.46558
23.04	1.13639
23.26	1.74471
23.48	0.674359
23.7	0.11574
23.92	4.30998
24.14	9.79937
24.36	12.4618
24.58	2000.09
24.8	31.8624
25.02	2.04165
25.24	10.0079
25.46	5.22325
25.68	11.4612
25.9	2.75734
26.12	5.19609
26.34	3.39982
26.56	8.74615
26.78	7.84792
27	1.13746
27.22	5.18175
27.44	1.24829
27.66	3.27737
27.88	4.59397
28.1	3.64146
28.32	3.76855
28.54	7.56579
28.76	11.6343
28.98	6.59142
29.2	3.55036
29.42	10.6178
29.64	3.63714
29.86	2.61732
30.08	4.74957
30.3	6.56758
30.52	9.44802
30.74	11.2321
30.96	8.12825
31.18	6.02695
31.4	8.02934
31.62	2.01002
31.84	54.9781
32.06	7.93277
32.28	0.779758
32.5	6.09877
32.72	6.98239
32.94	1.97734
33.16	7.16537
33.38	1.22372
33.6	1.27455
33.82	2.15508
34.04	1.86002
34.26	7.82321
34.48	7.73695
34.7	4.89667
34.92	15.6423
35.14	74.7028
35.36	4.78871
35.58	8.6291
35.8	7.97327
36.02	7.14156
36.24	2.17801
36.46	4.26412
36.68	6.27874
36.9	0.735787
37.12	9.00466
37.34	3.82377
37.56	0.683485
37.78	15.7724
38	151.829
38.22	4.47069
38.44	7.53336
38.66	3.57434
38.88	6.48373
39.1	3.53304
39.32	4.72106
39.54	5.70989
39.76	0.406839
39.98	2.55583
40.2	3.63542
40.42	2.61104
40.64	28.6548
40.86	1.44217
41.08	10.4116
41.3	1.43153
41.52	5.33013
41.74	0.982093
41.96	3.87223
42.18	0.254815
42.4	4.63721
42.62	5.25426
42.84	8.01291
43.06	15.0807
43.28	151.155
43.5	30.4052
43.72	0.28919
43.94	7.35959
44.16	2.592
44.38	5.73145
44.6	1.84386
44.82	1.04851
45.04	9.10075
45.26	8.47954
45.48	5.6935
45.7	85.5149
45.92	11.7265
46.14	3.06459
46.36	3.21998
46.58	7.12579
46.8	11.1522
47.02	2.1912
47.24	1.24873
47.46	2.27737
47.68	5.1857
47.9	6.8773
48.12	9.93205
48.34	10.238
48.56	7.32593
48.78	2.34054
49	5.40659
49.22	7.49766
49.44	2.58027
49.66	7.71734
49.88	5.90215
50.1	1.79514
50.32	54.8664
50.54	3.74893
50.76	5.71796
50.98	5.56518
51.2	4.67736
51.42	4.686
51.64	0.676789
51.86	3.79773
52.08	0.833375
52.3	1.2505
52.52	46.7134
52.74	11.5429
52.96	4.53733
53.18	1.64007
53.4	1.24635
53.62	1.15844
53.84	2.24728
54.06	2.45295
54.28	2.40796
54.5	3.42828
54.72	1.51534
54.94	3.53438
55.16	9.53524
55.38	4.79326
55.6	4.57347
55.82	1.41105
56.04	5.3204
56.26	6.153
56.48	4.00329
56.7	10.8464
56.92	25.5293
57.14	2.626
57.36	5.52002
57.58	8.57858
57.8	4.17333
58.02	9.14651
58.24	3.21844
58.46	7.22484
58.68	4.20034
58.9	18.2053
59.12	10.5163
59.34	0.55478
59.56	1.51948
59.78	7.51165
60	3.45141
60.22	5.58113
60.44	8.57779
60.66	3.74335
60.88	17.6903
61.1	3.91603
61.32	7.8556
61.54	3.6152
61.76	1.68009
61.98	4.46922
62.2	5.62945
62.42	3.14248
62.64	7.32449
62.86	19.3622
63.08	10.167
63.3	3.25596
63.52	2.03962
63.74	7.053
63.96	9.06394
64.18	2.11033
64.4	3.52962
64.62	20.5769
64.84	61.2878
65.06	2.31402
65.28	11.43
65.5	5.52594
65.72	4.641
65.94	1.65749
66.16	4.78054
66.38	5.04635
66.6	18.9287
66.82	3.75987
67.04	4.57025
67.26	0.493672
67.48	3.22616
67.7	5.16304
67.92	13.1023
68.14	8.08594
68.36	5.03664
68.58	8.89374
68.8	2.77996
69.02	1.91282
69.24	0.322824
69.46	0.28214
69.68	3.80572
69.9	4.89646
70.12	2.91438
70.34	20.0255
70.56	6.45088
70.78	10.4396
71	5.37993
71.22	0.432258
71.44	9.3408
71.66	1.5182
71.88	5.48014
72.1	47.511
72.32	33.5695
72.54	4.5872
72.76	1.42218
72.98	5.09904
73.2	4.10005
73.42	0.234175
73.64	3.48422
73.86	9.5053
74.08	12.5714
74.3	0.620247
74.52	3.80461
74.74	2.73094
74.96	4.80103
75.18	4.78943
75.4	1.02545
75.62	10.2366
75.84	4.07879
76.06	4.79301
76.28	3.76928
76.5	7.52221
76.72	5.43625
76.94	2.24313
77.16	1.21874
77.38	6.05023
77.6	6.99831
77.82	5.68189
78.04	6.32869
78.26	6.25774
78.48	8.07069
78.7	3.02337
78.92	0.836205
79.14	16.3404
79.36	9.37242
79.58	7.32914
79.8	4.41393
80.02	1.51057
80.24	5.56056
80.46	8.70659
80.68	0.090968
80.9	10.0869
81.12	11.3314
81.34	5.37237
81.56	4.32368
81.78	1.37387
82	5.46414
82.22	5.47833
82.44	5.54599
82.66	2.57846
82.88	1.69436
83.1	0.096966
83.32	1.87585
83.54	1.80988
83.76	3.7421
83.98	8.77096
84.2	7.77876
84.42	5.85802
84.64	6.07238
84.86	7.05384
85.08	6.98161
85.3	1.84659
85.52	0.533463
85.74	0.452036
85.96	13.4085
86.18	52.2147
86.4	14.2927
86.62	6.27795
86.84	2.95182
87.06	1.24436
87.28	4.04808
87.5	5.19226
87.72	0.265429
87.94	10.3243
88.16	10.5042
88.38	0.404839
88.6	1.56018
88.82	8.50185
89.04	11.7044
89.26	0.488975
89.48	4.41996
89.7	7.78688
89.92	11.2625
