Measurement: Powder, Xray Data XY Processed
Mineral: Spessartine
Rruff sample: R050063
Ideal chemistry: Mn^2+^_3_Al_2_(SiO_4_)_3_
Locality: Fujian Province, China
Source: Rock Currier
Description: Reddish brown crystals
Diffraction sample description: Powder
Measured chemistry: (Mn_2.72_Fe_0.24_Ca_0.04_)_Σ=3_(Al_1.95_Fe^3+^_0.05_)_Σ=2_(Si_1.00_O_4_)_2.75_(F_0.58_(OH)_0.42_)_Σ=1_; trace amounts of Mg; OH estimated by charge balance
Cell parameters: a: 11.6359(1) b: 11.6359(1) c: 11.6359(1) alpha: 90. beta: 90. gamma: 90. volume: 1575.44(6) crystal system: cubic
x	intensity
5	0
5.22	33.152
5.44	15.738
5.66	5.397
5.88	28.401
6.1	24.055
6.32	15.901
6.54	18.971
6.76	3.106
6.98	19.252
7.2	14.121
7.42	32.721
7.64	23.972
7.86	17.817
8.08	19.56
8.3	12.359
8.52	8.752
8.74	8.844
8.96	12.145
9.18	18.054
9.4	5.275
9.62	30.702
9.84	24.585
10.06	3.172
10.28	4.476
10.5	14.388
10.72	11.361
10.94	6.458
11.16	19.186
11.38	18.473
11.6	14.184
11.82	25.658
12.04	25.153
12.26	13.562
12.48	33.739
12.7	19.61
12.92	18.463
13.14	11.045
13.36	15.299
13.58	9.693
13.8	5.315
14.02	14.777
14.24	22.763
14.46	27.725
14.68	34.321
14.9	17.65
15.12	8.83
15.34	19.74
15.56	13.808
15.78	12.84
16	18.3
16.22	23.49
16.44	11.734
16.66	13.769
16.88	17.213
17.1	1.401
17.32	9.435
17.54	12.471
17.76	3.996
17.98	15.986
18.2	1.122
18.42	6.26
18.64	26.681
18.86	10.933
19.08	28.948
19.3	20.653
19.52	7.285
19.74	12.988
19.96	31.118
20.18	12.081
20.4	20.732
20.62	4.798
20.84	10.846
21.06	19.681
21.28	20.761
21.5	4.84
21.72	12.226
21.94	19.75
22.16	33.671
22.38	18.248
22.6	5.707
22.82	27.66
23.04	19.451
23.26	19.475
23.48	3.051
23.7	18.861
23.92	7.711
24.14	11.241
24.36	12.213
24.58	14.068
24.8	17.945
25.02	3.723
25.24	15.004
25.46	21.082
25.68	9.833
25.9	31.848
26.12	10.987
26.34	21.601
26.56	11.433
26.78	11.055
27	13.322
27.22	7.265
27.44	4.297
27.66	4.555
27.88	21.232
28.1	15.651
28.32	9.689
28.54	10.861
28.76	42.964
28.98	24.703
29.2	2.942
29.42	14.426
29.64	4.718
29.86	7.543
30.08	14.614
30.3	10.889
30.52	5.663
30.74	191.692
30.96	31.306
31.18	18.401
31.4	23.012
31.62	26.38
31.84	24.423
32.06	26.767
32.28	5.911
32.5	18.076
32.72	10.511
32.94	6.088
33.16	18.36
33.38	16.104
33.6	21.917
33.82	9.316
34.04	22.339
34.26	20.848
34.48	735.761
34.7	39.041
34.92	11.206
35.14	12.996
35.36	13.303
35.58	15.799
35.8	23.506
36.02	19.58
36.24	49.207
36.46	4.585
36.68	16.592
36.9	12.432
37.12	14.035
37.34	7.452
37.56	13.455
37.78	26.147
38	97.804
38.22	24.391
38.44	13.486
38.66	2.183
38.88	1.749
39.1	0.011
39.32	0.247
39.54	54.432
39.76	6.921
39.98	15.766
40.2	11.183
40.42	23.035
40.64	14.135
40.86	12.057
41.08	10.865
41.3	2.263
41.52	13.85
41.74	9.325
41.96	25.018
42.18	1.357
42.4	22.888
42.62	62.787
42.84	2.786
43.06	1.839
43.28	22.919
43.5	19.943
43.72	12.775
43.94	14.524
44.16	38.341
44.38	19.104
44.6	7.163
44.82	5.92
45.04	19.35
45.26	3.882
45.48	1.971
45.7	18.638
45.92	29.971
46.14	14.153
46.36	4.51
46.58	16.773
46.8	7.005
47.02	9.553
47.24	29.84
47.46	7.216
47.68	17.521
47.9	18.461
48.12	39.84
48.34	100.703
48.56	16.634
48.78	18.398
49	22.301
49.22	4.079
49.44	14.502
49.66	16.749
49.88	22.849
50.1	36.518
50.32	22.32
50.54	27.194
50.76	13.356
50.98	11.117
51.2	2.305
51.42	12.715
51.64	12.023
51.86	11.384
52.08	9.425
52.3	14.908
52.52	25.149
52.74	1.497
52.96	15.051
53.18	15.422
53.4	0.314
53.62	19.862
53.84	15.098
54.06	2.46
54.28	2.527
54.5	22.387
54.72	48.944
54.94	5.227
55.16	1.954
55.38	5.343
55.6	23.086
55.82	17.754
56.04	6.41
56.26	21.807
56.48	6.081
56.7	15.484
56.92	18.292
57.14	87.615
57.36	14.863
57.58	17.821
57.8	11.664
58.02	1.29
58.24	38.207
58.46	24.271
58.68	11.951
58.9	0.747
59.12	2.425
59.34	42.116
59.56	116.049
59.78	26.407
60	14.688
60.22	16.184
60.44	14.319
60.66	23.344
60.88	15.657
61.1	9.094
61.32	24.779
61.54	27.873
61.76	29.957
61.98	19.778
62.2	20.373
62.42	11.009
62.64	8.99
62.86	32.641
63.08	15.658
63.3	10.252
63.52	17.379
63.74	17.669
63.96	7.574
64.18	36.774
64.4	27.083
64.62	1.096
64.84	33.33
65.06	24.405
65.28	24.772
65.5	15.196
65.72	29.307
65.94	11.209
66.16	19.327
66.38	18.259
66.6	27.938
66.82	15.008
67.04	2.705
67.26	4.448
67.48	9.249
67.7	25.041
67.92	17.751
68.14	7.673
68.36	12.342
68.58	7.417
68.8	11.049
69.02	13.92
69.24	18.686
69.46	30.12
69.68	17.306
69.9	2.741
70.12	9.957
70.34	25.669
70.56	13.711
70.78	17.854
71	14.881
71.22	35.208
71.44	38.798
71.66	21.579
71.88	22.948
72.1	6.537
72.32	5.916
72.54	28.611
72.76	41.863
72.98	10.215
73.2	15.152
73.42	4.413
73.64	16.396
73.86	5.835
74.08	9.926
74.3	8.178
74.52	14.977
74.74	93.05
74.96	53.937
75.18	27.322
75.4	19.994
75.62	19.924
75.84	9.606
76.06	2.269
76.28	11.512
76.5	20.087
76.72	14.201
76.94	19.919
77.16	1.353
77.38	5.724
77.6	9.534
77.82	15.14
78.04	15.62
78.26	15.396
78.48	10.935
78.7	12.556
78.92	2.278
79.14	24.705
79.36	18.198
79.58	20.715
79.8	0.275
80.02	26.369
80.24	1.228
80.46	22.444
80.68	9.244
80.9	22.974
81.12	14.155
81.34	22.945
81.56	9.782
81.78	44.714
82	11.977
82.22	19.439
82.44	15.785
82.66	1.829
82.88	9.455
83.1	35.034
83.32	20.132
83.54	13.108
83.76	4.112
83.98	25.957
84.2	14.677
84.42	14.767
84.64	16.486
84.86	14.973
85.08	0.667
85.3	16.969
85.52	19.447
85.74	17.525
85.96	0.255
86.18	22.975
86.4	25.475
86.62	9.845
86.84	7.662
87.06	4.129
87.28	18.464
87.5	6.245
87.72	19.379
87.94	35.166
88.16	11.468
88.38	11.237
88.6	27.345
88.82	20.745
89.04	9.319
89.26	24.885
89.48	9.835
89.7	20.294
89.92	17.664
