Measurement: Powder, Xray Data XY Processed
Mineral: Sphalerite
Rruff sample: R050140
Ideal chemistry: Zn^2+^S^2-^
Locality: Big Four mine, Summit County, Colorado, USA
Source: Dave Bunk Minerals
Description: Group of dark green tetrahedra
Diffraction sample description: Powder
Measured chemistry: Zn_1.00_S_1.00_
Cell parameters: a: 5.41089(9) b: 5.41089(9) c: 5.41089(9) alpha: 90. beta: 90. gamma: 90. volume: 158.419(8) crystal system: cubic
x	intensity
5	0
5.22	4.32207
5.44	2.59838
5.66	6.11383
5.88	4.90437
6.1	12.1395
6.32	19.2556
6.54	16.2121
6.76	15.6684
6.98	1.12911
7.2	1.47274
7.42	9.01531
7.64	7.41082
7.86	3.04661
8.08	6.57066
8.3	3.64858
8.52	1.72473
8.74	11.6638
8.96	9.42455
9.18	3.87366
9.4	4.56941
9.62	4.01663
9.84	10.511
10.06	3.24274
10.28	16.5209
10.5	18.7438
10.72	6.10062
10.94	0.096766
11.16	3.27614
11.38	15.6323
11.6	4.31266
11.82	4.67275
12.04	5.98615
12.26	11.3697
12.48	5.91068
12.7	9.46185
12.92	5.46406
13.14	3.24684
13.36	7.52394
13.58	8.04094
13.8	4.99764
14.02	4.65849
14.24	15.9408
14.46	7.91095
14.68	7.89788
14.9	10.3031
15.12	9.15607
15.34	12.0513
15.56	0.162766
15.78	6.8177
16	3.32679
16.22	2.42737
16.44	5.61618
16.66	10.441
16.88	2.50846
17.1	1.46507
17.32	10.6116
17.54	7.02645
17.76	4.31138
17.98	3.65741
18.2	9.67554
18.42	1.85383
18.64	8.86038
18.86	6.09844
19.08	9.15075
19.3	2.20063
19.52	5.21045
19.74	10.3561
19.96	8.98605
20.18	8.92194
20.4	2.68458
20.62	1.75545
20.84	10.7419
21.06	8.7848
21.28	0.40162
21.5	2.57633
21.72	0.664312
21.94	2.7651
22.16	3.94458
22.38	6.99784
22.6	0.955612
22.82	3.10561
23.04	9.0568
23.26	7.02174
23.48	2.23128
23.7	0.254545
23.92	6.53474
24.14	12.4896
24.36	3.41702
24.58	6.01563
24.8	1.67051
25.02	2.4727
25.24	5.82815
25.46	4.56177
25.68	8.10165
25.9	9.56704
26.12	5.22145
26.34	5.62297
26.56	6.65675
26.78	1.44993
27	5.1454
27.22	2.78958
27.44	7.07226
27.66	14.2886
27.88	12.8722
28.1	14.7877
28.32	52.6477
28.54	1006.68
28.76	236.537
28.98	39.6302
29.2	13.2918
29.42	7.20423
29.64	17.6676
29.86	12.9371
30.08	0.738644
30.3	6.91087
30.52	5.15479
30.74	4.92353
30.96	2.74381
31.18	11.5124
31.4	2.02719
31.62	5.06177
31.84	2.82947
32.06	5.46073
32.28	4.31756
32.5	8.77243
32.72	7.981
32.94	23.1457
33.16	159.684
33.38	18.2701
33.6	13.6146
33.82	6.14115
34.04	6.87001
34.26	5.35294
34.48	10.9416
34.7	2.30396
34.92	10.7697
35.14	3.09276
35.36	0.982491
35.58	7.11483
35.8	2.96456
36.02	0.909789
36.24	6.02271
36.46	1.01085
36.68	5.99782
36.9	11.1126
37.12	0.318932
37.34	11.5471
37.56	1.54411
37.78	10.3614
38	11.2348
38.22	2.79287
38.44	4.97574
38.66	1.0168
38.88	0.038611
39.1	3.91853
39.32	0.810122
39.54	3.56905
39.76	4.61581
39.98	12.6983
40.2	11.2653
40.42	0.340342
40.64	0.431079
40.86	6.66535
41.08	6.33393
41.3	8.23976
41.52	9.10689
41.74	5.90247
41.96	9.50183
42.18	14.4791
42.4	0.776863
42.62	22.87
42.84	10.8001
43.06	3.71455
43.28	10.6636
43.5	2.74127
43.72	4.77661
43.94	12.6684
44.16	4.76799
44.38	14.0767
44.6	4.8422
44.82	4.35942
45.04	8.81672
45.26	6.06924
45.48	12.1186
45.7	8.70979
45.92	12.2129
46.14	15.6434
46.36	6.21252
46.58	2.23752
46.8	8.75113
47.02	12.272
47.24	47.5771
47.46	630.647
47.68	1085.55
47.9	59.0302
48.12	32.9158
48.34	4.53937
48.56	9.71813
48.78	8.8019
49	15.3482
49.22	5.46439
49.44	3.52965
49.66	13.6357
49.88	4.79236
50.1	9.61765
50.32	7.91781
50.54	24.2563
50.76	6.59236
50.98	5.2443
51.2	7.61592
51.42	7.49191
51.64	0.874212
51.86	0.189407
52.08	10.1057
52.3	1.1992
52.52	9.33448
52.74	11.48
52.96	4.68113
53.18	4.75777
53.4	1.62911
53.62	1.07385
53.84	1.81568
54.06	0.986664
54.28	6.42801
54.5	8.84643
54.72	19.8794
54.94	9.87143
55.16	2.07491
55.38	4.92602
55.6	15.0648
55.82	1.413
56.04	10.4114
56.26	103.171
56.48	243.81
56.7	43.6047
56.92	18.5385
57.14	12.5694
57.36	0.829659
57.58	1.88877
57.8	3.79107
58.02	11.643
58.24	0.590406
58.46	11.073
58.68	7.5299
58.9	4.97571
59.12	42.1635
59.34	22.169
59.56	8.06846
59.78	5.22122
60	13.1768
60.22	4.63235
60.44	12.7913
60.66	6.95013
60.88	9.00635
61.1	4.09761
61.32	6.23331
61.54	6.89442
61.76	8.7895
61.98	1.84222
62.2	3.93456
62.42	0.979602
62.64	3.24442
62.86	6.28966
63.08	6.45246
63.3	2.74842
63.52	5.97318
63.74	3.0092
63.96	7.08045
64.18	1.12683
64.4	8.28693
64.62	11.1889
64.84	4.03833
65.06	3.07431
65.28	5.18922
65.5	2.27127
65.72	1.3932
65.94	9.5931
66.16	7.15898
66.38	3.16466
66.6	4.03691
66.82	15.9168
67.04	9.68043
67.26	10.4007
67.48	4.89032
67.7	5.4364
67.92	3.51238
68.14	7.01644
68.36	3.54226
68.58	4.64184
68.8	9.32897
69.02	0.116971
69.24	11.2272
69.46	76.2706
69.68	47.4102
69.9	9.70049
70.12	13.3222
70.34	3.71453
70.56	5.10271
70.78	4.41258
71	1.76625
71.22	6.17545
71.44	5.37976
71.66	8.31321
71.88	13.358
72.1	5.58198
72.32	6.63181
72.54	8.37456
72.76	0.711493
72.98	0.284442
73.2	5.86147
73.42	17.282
73.64	1.17565
73.86	9.30012
74.08	6.22507
74.3	9.11103
74.52	13.3639
74.74	2.1496
74.96	8.58968
75.18	4.04912
75.4	4.63623
75.62	6.06319
75.84	3.24706
76.06	9.78558
76.28	13.1653
76.5	8.16922
76.72	175.931
76.94	108.681
77.16	13.3541
77.38	12.7314
77.6	2.77114
77.82	5.83528
78.04	3.91076
78.26	10.0244
78.48	2.176
78.7	5.42209
78.92	2.56237
79.14	71.3494
79.36	40.4794
79.58	3.74177
79.8	18.7109
80.02	4.19851
80.24	7.63095
80.46	11.3682
80.68	10.7479
80.9	0.243385
81.12	0.619448
81.34	6.7371
81.56	5.00587
81.78	8.18548
82	8.73883
82.22	4.75685
82.44	6.64273
82.66	15.6144
82.88	2.45632
83.1	3.63569
83.32	0.053698
83.54	8.00201
83.76	4.80009
83.98	13.6342
84.2	4.42291
84.42	2.12223
84.64	3.99243
84.86	6.16238
85.08	1.91386
85.3	7.74256
85.52	1.86665
85.74	2.06885
85.96	0.975596
86.18	2.82655
86.4	9.21786
86.62	0.779611
86.84	3.83336
87.06	1.51979
87.28	5.91873
87.5	10.5932
87.72	12.1678
87.94	2.6292
88.16	12.0197
88.38	94.8928
88.6	60.5758
88.82	70.4632
89.04	12.1728
89.26	8.40623
89.48	2.95382
89.7	9.05656
89.92	3.29038
