Measurement: Powder, Xray Data XY Processed
Mineral: Spinel
Rruff sample: R050392
Ideal chemistry: MgAl_2_O_4_
Locality: Mogok, Burma
Source: Eric Van Valkenburg
Description: Pink octahedron
Diffraction sample description: Powder
Measured chemistry: Mg_1.00_Al_1.96_Cr_0.04_O_4_
Cell parameters: a: 8.0911(2) b: 8.0911(2) c: 8.0911(2) alpha: 90. beta: 90. gamma: 90. volume: 529.69(4) crystal system: cubic
x	intensity
5	0
5.22	9.67503
5.44	11.0609
5.66	10.8408
5.88	3.6471
6.1	14.9119
6.32	6.42237
6.54	14.8918
6.76	4.41364
6.98	3.96741
7.2	6.54045
7.42	6.12899
7.64	8.82951
7.86	22.1801
8.08	7.97737
8.3	4.9532
8.52	1.57452
8.74	10.2488
8.96	3.02311
9.18	11.7275
9.4	7.16958
9.62	12.5438
9.84	12.151
10.06	6.26924
10.28	11.1713
10.5	8.28057
10.72	8.17223
10.94	16.3937
11.16	4.50179
11.38	17.363
11.6	7.92547
11.82	2.84751
12.04	6.75931
12.26	2.70227
12.48	1.97653
12.7	0.820126
12.92	16.675
13.14	6.63764
13.36	4.45178
13.58	7.58527
13.8	6.72428
14.02	13.1955
14.24	2.40396
14.46	2.70813
14.68	4.8919
14.9	6.05542
15.12	5.15198
15.34	5.14086
15.56	6.46999
15.78	2.53446
16	0.275019
16.22	6.40666
16.44	6.92259
16.66	4.94778
16.88	4.713
17.1	16.5285
17.32	5.37227
17.54	10.14
17.76	10.9344
17.98	1.52719
18.2	7.23716
18.42	4.14634
18.64	7.97399
18.86	65.9317
19.08	47.9513
19.3	4.91467
19.52	10.9649
19.74	0.987908
19.96	1.85567
20.18	5.26549
20.4	7.4371
20.62	10.5197
20.84	2.40063
21.06	4.52004
21.28	3.41397
21.5	3.62173
21.72	9.72693
21.94	5.18585
22.16	5.18463
22.38	0.458325
22.6	6.48661
22.82	3.53456
23.04	11.5545
23.26	10.5581
23.48	3.54704
23.7	15.5319
23.92	6.39748
24.14	7.16019
24.36	0.579346
24.58	0.541183
24.8	5.31771
25.02	12.1811
25.24	3.56762
25.46	10.5781
25.68	9.51826
25.9	5.40288
26.12	8.24375
26.34	8.39635
26.56	4.3909
26.78	8.47865
27	7.4841
27.22	6.39407
27.44	10.6679
27.66	3.32248
27.88	6.51005
28.1	11.6222
28.32	7.81294
28.54	7.73907
28.76	1.906
28.98	2.17427
29.2	3.06419
29.42	4.96141
29.64	3.91884
29.86	1.55945
30.08	1.78613
30.3	7.79174
30.52	0.506259
30.74	17.4429
30.96	16.4148
31.18	236.291
31.4	38.2224
31.62	10.2587
31.84	5.57669
32.06	8.52804
32.28	2.80361
32.5	0.832369
32.72	4.46229
32.94	6.82099
33.16	21.9525
33.38	6.52564
33.6	6.46372
33.82	9.75756
34.04	3.67212
34.26	0.696761
34.48	1.41932
34.7	5.19676
34.92	5.80884
35.14	26.1296
35.36	3.36413
35.58	11.173
35.8	3.14551
36.02	2.15312
36.24	10.4592
36.46	19.2944
36.68	152.896
36.9	423.597
37.12	36.6912
37.34	15.9925
37.56	7.54162
37.78	12.2892
38	8.0452
38.22	4.06192
38.44	16.4746
38.66	6.44024
38.88	8.94645
39.1	7.63892
39.32	0.323632
39.54	5.37572
39.76	0.901356
39.98	10.2897
40.2	14.6069
40.42	7.88776
40.64	1.97578
40.86	8.94109
41.08	4.09434
41.3	9.21284
41.52	13.995
41.74	8.18113
41.96	3.94916
42.18	8.32864
42.4	3.56201
42.62	5.59456
42.84	7.91518
43.06	12.6425
43.28	4.65571
43.5	3.53667
43.72	0.660006
43.94	1.88126
44.16	5.11175
44.38	11.8494
44.6	62.0107
44.82	241.415
45.04	26.3879
45.26	6.90791
45.48	9.57875
45.7	12.4296
45.92	6.50843
46.14	1.69417
46.36	7.05995
46.58	10.8261
46.8	3.70626
47.02	8.05268
47.24	8.08408
47.46	4.97668
47.68	5.27177
47.9	1.29039
48.12	1.50592
48.34	6.23236
48.56	1.3145
48.78	9.29799
49	8.38613
49.22	11.1616
49.44	12.0883
49.66	7.14436
49.88	2.14294
50.1	3.17109
50.32	0.962303
50.54	3.20069
50.76	9.32012
50.98	7.25827
51.2	0.711829
51.42	6.12853
51.64	2.83825
51.86	1.36844
52.08	10.7183
52.3	4.91537
52.52	8.9888
52.74	7.06037
52.96	9.32816
53.18	1.37606
53.4	6.57995
53.62	5.63994
53.84	6.79716
54.06	6.76915
54.28	4.57882
54.5	4.16517
54.72	4.06567
54.94	10.764
55.16	1.56956
55.38	18.5403
55.6	58.7998
55.82	8.12127
56.04	5.91041
56.26	11.5734
56.48	9.31993
56.7	12.2919
56.92	9.92316
57.14	2.63203
57.36	10.3417
57.58	17.0575
57.8	3.0171
58.02	3.0609
58.24	12.1875
58.46	4.79635
58.68	3.49902
58.9	20.2961
59.12	42.2492
59.34	132.469
59.56	31.6215
59.78	21.5218
60	0.9114
60.22	1.49667
60.44	7.52059
60.66	13.1453
60.88	5.86052
61.1	9.57473
61.32	0.036254
61.54	5.45888
61.76	3.55065
61.98	9.85453
62.2	6.64974
62.42	0.463071
62.64	11.0892
62.86	0.742698
63.08	2.25265
63.3	12.6606
63.52	14.7941
63.74	9.03132
63.96	9.89979
64.18	9.00893
64.4	6.02359
64.62	17.0749
64.84	35.5217
65.06	155.408
65.28	196.052
65.5	28.1414
65.72	18.5283
65.94	8.41754
66.16	4.32318
66.38	3.51503
66.6	7.42047
66.82	5.24022
67.04	1.02403
67.26	6.69567
67.48	5.89321
67.7	4.30715
67.92	7.7949
68.14	21.1417
68.36	18.9106
68.58	13.8879
68.8	8.79683
69.02	7.83565
69.24	0.065513
69.46	5.28796
69.68	8.53597
69.9	2.7386
70.12	0.029614
70.34	3.8873
70.56	12.1199
70.78	1.36069
71	4.73227
71.22	9.73218
71.44	6.9439
71.66	3.84787
71.88	0.134455
72.1	1.79675
72.32	1.14106
72.54	10.7813
72.76	2.64332
72.98	1.42461
73.2	8.24808
73.42	5.9162
73.64	7.78099
73.86	1.69363
74.08	12.7454
74.3	12.9739
74.52	3.37121
74.74	3.30398
74.96	2.45577
75.18	5.62693
75.4	6.96428
75.62	9.0934
75.84	2.92736
76.06	7.84639
76.28	5.63659
76.5	2.43862
76.72	0.160346
76.94	6.76063
77.16	23.5678
77.38	17.465
77.6	1.4761
77.82	8.57374
78.04	6.57596
78.26	4.06846
78.48	14.2375
78.7	1.68824
78.92	0.137421
79.14	0.002924
79.36	0.068254
79.58	3.24694
79.8	7.32028
80.02	3.34586
80.24	3.23082
80.46	4.1249
80.68	4.91481
80.9	3.88579
81.12	2.75837
81.34	4.67149
81.56	3.63553
81.78	4.61458
82	0.619347
82.22	8.89468
82.44	5.89994
82.66	13.724
82.88	11.876
83.1	3.00684
83.32	4.2006
83.54	5.08115
83.76	0.102684
83.98	5.13703
84.2	6.17444
84.42	3.36801
84.64	5.15165
84.86	5.12759
85.08	5.17832
85.3	2.0134
85.52	1.34884
85.74	8.5393
85.96	5.62914
86.18	5.79093
86.4	9.90495
86.62	4.03543
86.84	6.98695
87.06	6.23751
87.28	7.50308
87.5	6.68679
87.72	9.86254
87.94	3.63308
88.16	7.77985
88.38	14.9513
88.6	10.1176
88.82	2.20501
89.04	9.4854
89.26	3.4695
89.48	2.41296
89.7	5.36435
89.92	3.66314
