Measurement: Powder, Xray Data XY Processed
Mineral: Tremolite
Rruff sample: R060311
Ideal chemistry: [box]Ca_2_Mg_5_Si_8_O_22_(OH)_2_
Locality: Khyber Pass area, Khyber Agency, North-West Frontier Province, Pakistan
Source: Herb Obodda
Description: Colorless fragment
Diffraction sample description: Powder
Measured chemistry: [box](Ca_1.96_Mg_0.04_)_Σ=2_(Mg_4.97_Fe^3+^_0.03_)_Σ=5_(Si_7.97_Al_0.03_)_Σ=8_O_22_(OH)_2_
Cell parameters: a: 9.8310(4) b: 18.054(1) c: 5.2770(5) alpha: 90 beta: 104.696(4) gamma: 90 volume: 905.97(7) crystal system: monoclinic
x	intensity
5	0
5.22	8.571
5.44	9.279
5.66	10.703
5.88	0.714
6.1	0.846
6.32	22.271
6.54	6.364
6.76	5.543
6.98	5.784
7.2	2.692
7.42	6.427
7.64	1.586
7.86	0.678
8.08	3.778
8.3	5.049
8.52	2.822
8.74	5.755
8.96	0.948
9.18	0.546
9.4	10.878
9.62	18.479
9.84	105.184
10.06	10.828
10.28	22.121
10.5	264.09
10.72	6.693
10.94	6.673
11.16	7.741
11.38	7.492
11.6	2.479
11.82	6.546
12.04	7.109
12.26	12.293
12.48	10.264
12.7	0.478
12.92	5.058
13.14	3.323
13.36	6.313
13.58	3.129
13.8	9.868
14.02	1.854
14.24	6.005
14.46	0.25
14.68	8.552
14.9	5.494
15.12	7.616
15.34	0.476
15.56	2.863
15.78	5.661
16	4.243
16.22	0.171
16.44	1.835
16.66	0.196
16.88	14.471
17.1	0.071
17.32	5.41
17.54	9.934
17.76	2.455
17.98	0.016
18.2	65.482
18.42	1.658
18.64	24.659
18.86	2.074
19.08	0.44
19.3	0.356
19.52	7.592
19.74	32.109
19.96	7.028
20.18	3.178
20.4	1.255
20.62	4.271
20.84	5.671
21.06	14.717
21.28	7.416
21.5	0.65
21.72	2.876
21.94	3.583
22.16	2.36
22.38	0.512
22.6	2.548
22.82	2.98
23.04	18.003
23.26	4.913
23.48	2.199
23.7	1.617
23.92	3.829
24.14	6.048
24.36	5.065
24.58	7.236
24.8	2.692
25.02	0.714
25.24	0.345
25.46	1.846
25.68	9.564
25.9	3.397
26.12	0.397
26.34	68.522
26.56	8.945
26.78	0.437
27	10.561
27.22	101.868
27.44	7.264
27.66	0.899
27.88	0.154
28.1	6.882
28.32	3.481
28.54	74.504
28.76	31.58
28.98	6.995
29.2	3.249
29.42	0.98
29.64	3.467
29.86	7.957
30.08	4.437
30.3	16.769
30.52	58.768
30.74	0.238
30.96	0.59
31.18	2.798
31.4	10.238
31.62	0.244
31.84	8.922
32.06	3.443
32.28	0.009
32.5	3.585
32.72	16.016
32.94	27.405
33.16	124.102
33.38	8.025
33.6	4.873
33.82	8.729
34.04	0.574
34.26	0.436
34.48	7.104
34.7	39.365
34.92	7.922
35.14	10.253
35.36	27.238
35.58	21.306
35.8	9.57
36.02	6.337
36.24	5.417
36.46	4.935
36.68	0.304
36.9	0
37.12	1.424
37.34	16.313
37.56	2.101
37.78	24.503
38	4.595
38.22	8.239
38.44	9.576
38.66	23.442
38.88	30.419
39.1	7.957
39.32	17.789
39.54	16.508
39.76	4.101
39.98	3.87
40.2	0.305
40.42	5.892
40.64	0.981
40.86	12.203
41.08	1.274
41.3	2.146
41.52	10.22
41.74	64.973
41.96	10.364
42.18	7.553
42.4	2.831
42.62	3.155
42.84	1.849
43.06	4.372
43.28	7.192
43.5	1.173
43.72	4.118
43.94	5.107
44.16	1.761
44.38	7.234
44.6	1.736
44.82	2.629
45.04	34.569
45.26	11.198
45.48	6.451
45.7	5.11
45.92	0.813
46.14	7.019
46.36	10.867
46.58	2.601
46.8	4.294
47.02	10.709
47.24	16.4
47.46	5.088
47.68	2.128
47.9	0.329
48.12	34.007
48.34	3.016
48.56	4.988
48.78	12.472
49	5.123
49.22	8.796
49.44	4.009
49.66	0.334
49.88	0.565
50.1	7.539
50.32	20.319
50.54	8.288
50.76	6.809
50.98	6.348
51.2	3.57
51.42	4.835
51.64	4.076
51.86	5.54
52.08	2.715
52.3	7.939
52.52	10.559
52.74	9.653
52.96	3.506
53.18	0.28
53.4	2.534
53.62	8.513
53.84	6.404
54.06	6.293
54.28	4.87
54.5	11.141
54.72	0.348
54.94	6.289
55.16	0.385
55.38	7.275
55.6	12.347
55.82	19.405
56.04	2.198
56.26	9.447
56.48	5.056
56.7	10.37
56.92	28.895
57.14	3.037
57.36	3.124
57.58	0.246
57.8	5.964
58.02	4.947
58.24	9.062
58.46	28.179
58.68	3.014
58.9	5.171
59.12	0.294
59.34	12.946
59.56	8.912
59.78	3.568
60	0.161
60.22	0.361
60.44	13.945
60.66	1.002
60.88	0.068
61.1	1.073
61.32	17.207
61.54	13.297
61.76	17.814
61.98	6.385
62.2	0.394
62.42	0.316
62.64	9.126
62.86	3.177
63.08	5.086
63.3	10.355
63.52	3.042
63.74	4.861
63.96	0.644
64.18	17.275
64.4	10.971
64.62	5.209
64.84	72.378
65.06	19.785
65.28	8.193
65.5	8.765
65.72	6.786
65.94	8.138
66.16	1.737
66.38	1.302
66.6	5.496
66.82	9.549
67.04	5.706
67.26	6.064
67.48	2.045
67.7	5.818
67.92	4.32
68.14	1.171
68.36	3.961
68.58	6.893
68.8	27.007
69.02	4.663
69.24	4.411
69.46	0.869
69.68	0.504
69.9	7.585
70.12	0.592
70.34	7.819
70.56	8.77
70.78	5.894
71	4.551
71.22	0.798
71.44	0.213
71.66	0.16
71.88	2.904
72.1	10.894
72.32	15.225
72.54	3.507
72.76	4.406
72.98	11.327
73.2	0.33
73.42	9.559
73.64	0.801
73.86	0.008
74.08	2.127
74.3	9.522
74.52	2.214
74.74	2.747
74.96	4.192
75.18	5.388
75.4	0.816
75.62	1.049
75.84	4.303
76.06	8.556
76.28	7.735
76.5	1.674
76.72	0.692
76.94	1.406
77.16	5.187
77.38	5.878
77.6	9.887
77.82	3.782
78.04	8.924
78.26	8.655
78.48	1.521
78.7	3.767
78.92	4.78
79.14	1.683
79.36	2.793
79.58	2.577
79.8	0.268
80.02	15.486
80.24	11.754
80.46	1.877
80.68	1.952
80.9	7.968
81.12	0.258
81.34	1.19
81.56	0.435
81.78	7.384
82	6.629
82.22	7.554
82.44	0.159
82.66	0.361
82.88	12.821
83.1	3.715
83.32	2.825
83.54	5.591
83.76	6.631
83.98	5.38
84.2	0.131
84.42	3.899
84.64	4.317
84.86	2.536
85.08	1.636
85.3	0.385
85.52	1.626
85.74	1.536
85.96	5.646
86.18	4.41
86.4	8.205
86.62	0.079
86.84	2.229
87.06	0.437
87.28	1.226
87.5	6.337
87.72	0.479
87.94	3.514
88.16	4.593
88.38	5.594
88.6	9.86
88.82	1.754
89.04	12.834
89.26	5.817
89.48	7.768
89.7	8.499
89.92	7.921
