Measurement: Powder, Xray Data XY Processed
Mineral: Tremolite
Rruff sample: R061087
Ideal chemistry: [box]Ca_2_Mg_5_Si_8_O_22_(OH)_2_
Locality: Turret, Chaffee County, Colorado, USA
Source: Michael Scott
Description: White radiating tufts of acicular crystals
Diffraction sample description: Powder
Cell parameters: a: 9.8403(1) b: 18.0550(5) c: 5.2776(2) alpha: 90 beta: 104.754(2) gamma: 90 volume: 906.73(4) crystal system: monoclinic
x	intensity
5	0
5.22	1.35632
5.44	7.879
5.66	0.827644
5.88	4.75302
6.1	20.6351
6.32	14.9413
6.54	2.84379
6.76	9.98682
6.98	5.86236
7.2	5.69008
7.42	7.68598
7.64	9.81494
7.86	1.64091
8.08	8.02976
8.3	7.03324
8.52	6.10679
8.74	11.0158
8.96	13.844
9.18	5.52481
9.4	13.457
9.62	7.24588
9.84	69.5928
10.06	7.33771
10.28	7.21054
10.5	765.663
10.72	11.4375
10.94	5.10358
11.16	11.5374
11.38	11.1626
11.6	4.79552
11.82	6.24371
12.04	9.59584
12.26	6.6744
12.48	3.75813
12.7	10.1394
12.92	8.27497
13.14	2.92568
13.36	2.72675
13.58	8.76194
13.8	6.63232
14.02	2.56173
14.24	5.75422
14.46	17.9928
14.68	223.067
14.9	7.41755
15.12	5.60036
15.34	25.6386
15.56	8.93813
15.78	3.10025
16	0.643819
16.22	2.25021
16.44	1.71308
16.66	10.5772
16.88	15.3565
17.1	6.99126
17.32	15.7943
17.54	20.3541
17.76	2.18155
17.98	2.97685
18.2	27.8626
18.42	1.57473
18.64	141.159
18.86	5.28488
19.08	0.321707
19.3	0.392704
19.52	5.63735
19.74	32.4397
19.96	4.54964
20.18	4.55154
20.4	5.91424
20.62	3.27556
20.84	1.57508
21.06	50.4651
21.28	9.49098
21.5	9.18966
21.72	0.263224
21.94	6.28221
22.16	8.36178
22.38	5.50577
22.6	6.03062
22.82	6.85548
23.04	9.65379
23.26	14.7353
23.48	1.04209
23.7	0.381278
23.92	1.07475
24.14	3.40254
24.36	7.58628
24.58	11.4875
24.8	7.39244
25.02	1.13735
25.24	13.4849
25.46	0.11213
25.68	5.51042
25.9	9.59023
26.12	7.92388
26.34	109.12
26.56	13.0534
26.78	11.8147
27	7.16935
27.22	321.48
27.44	21.6984
27.66	9.968
27.88	2.2353
28.1	16.4477
28.32	2.20798
28.54	881.607
28.76	55.0261
28.98	9.82154
29.2	13.3123
29.42	21.2908
29.64	16.6639
29.86	0.972233
30.08	2.90158
30.3	14.2027
30.52	44.858
30.74	5.27699
30.96	24.6363
31.18	8.1106
31.4	5.41267
31.62	15.2904
31.84	55.2333
32.06	19.8494
32.28	0.709072
32.5	4.4415
32.72	42.729
32.94	18.9298
33.16	115.835
33.38	16.7431
33.6	2.44428
33.82	2.50429
34.04	2.48103
34.26	23.4435
34.48	14.467
34.7	16.8042
34.92	5.39521
35.14	8.09611
35.36	22.1869
35.58	10.0247
35.8	5.64699
36.02	9.10943
36.24	1.05456
36.46	6.32468
36.68	10.5215
36.9	2.10792
37.12	1.71825
37.34	10.6235
37.56	2.53996
37.78	23.151
38	0.478155
38.22	26.2425
38.44	40.2162
38.66	4.34323
38.88	46.4408
39.1	11.1259
39.32	0.193543
39.54	8.16908
39.76	13.6277
39.98	18.0283
40.2	3.33302
40.42	13.3549
40.64	4.91789
40.86	12.7831
41.08	7.56084
41.3	5.37795
41.52	4.75191
41.74	81.3186
41.96	2.78639
42.18	14.8077
42.4	16.2549
42.62	6.75349
42.84	10.9313
43.06	6.06176
43.28	3.21312
43.5	5.50364
43.72	5.40238
43.94	1.52073
44.16	2.59424
44.38	13.3432
44.6	18.0931
44.82	8.42957
45.04	51.768
45.26	34.7903
45.48	16.4146
45.7	9.78602
45.92	3.94797
46.14	15.052
46.36	9.49875
46.58	0.573632
46.8	12.0829
47.02	12.0429
47.24	6.20054
47.46	2.64218
47.68	8.05901
47.9	5.83281
48.12	53.7241
48.34	9.62463
48.56	3.8289
48.78	21.0787
49	11.7348
49.22	6.91217
49.44	6.09599
49.66	7.4767
49.88	0.222472
50.1	10.0549
50.32	17.2225
50.54	5.3394
50.76	8.95614
50.98	8.15787
51.2	9.10163
51.42	20.3308
51.64	7.05286
51.86	7.39407
52.08	1.51534
52.3	0.588789
52.52	13.4236
52.74	2.61415
52.96	0.768384
53.18	2.65369
53.4	11.306
53.62	6.25709
53.84	22.0681
54.06	17.5556
54.28	7.16631
54.5	6.62769
54.72	1.59398
54.94	11.0538
55.16	9.89688
55.38	1.07876
55.6	20.1921
55.82	39.2557
56.04	3.04555
56.26	17.3807
56.48	1.89987
56.7	6.21266
56.92	29.5383
57.14	2.75404
57.36	1.01678
57.58	3.43187
57.8	4.6979
58.02	5.50421
58.24	20.5526
58.46	21.5928
58.68	10.316
58.9	4.34722
59.12	28.1786
59.34	4.02377
59.56	6.10439
59.78	2.53534
60	6.28191
60.22	3.99776
60.44	11.0295
60.66	9.11148
60.88	0.180704
61.1	18.1886
61.32	16.1887
61.54	10.5117
61.76	30.7036
61.98	12.7879
62.2	10.6235
62.42	6.71251
62.64	4.7273
62.86	5.90073
63.08	2.83577
63.3	10.871
63.52	6.47923
63.74	4.30059
63.96	16.0372
64.18	8.04994
64.4	7.26378
64.62	4.63896
64.84	46.9746
65.06	11.2079
65.28	8.31087
65.5	4.69298
65.72	8.89576
65.94	9.16574
66.16	8.63855
66.38	2.99873
66.6	1.97571
66.82	25.8802
67.04	6.6433
67.26	9.56441
67.48	7.49353
67.7	5.26069
67.92	8.1079
68.14	6.9336
68.36	0.281994
68.58	3.89138
68.8	37.778
69.02	24.434
69.24	41.3846
69.46	15.2734
69.68	7.98638
69.9	10.058
70.12	3.05002
70.34	2.92432
70.56	5.98771
70.78	9.16482
71	5.47765
71.22	3.09853
71.44	0.184099
71.66	6.39248
71.88	2.57226
72.1	11.4594
72.32	6.26936
72.54	2.70065
72.76	6.18907
72.98	1.20416
73.2	6.238
73.42	4.46209
73.64	4.86133
73.86	4.98553
74.08	25.981
74.3	7.35928
74.52	11.6019
74.74	8.85565
74.96	9.71212
75.18	7.84748
75.4	12.0416
75.62	4.11647
75.84	0.236737
76.06	8.71436
76.28	5.98113
76.5	3.99383
76.72	8.86161
76.94	0.055443
77.16	7.95588
77.38	10.7025
77.6	3.73222
77.82	3.74715
78.04	6.82101
78.26	4.82529
78.48	5.21886
78.7	8.97245
78.92	8.8058
79.14	0.992107
79.36	3.66648
79.58	11.4193
79.8	4.1539
80.02	4.09286
80.24	4.80368
80.46	0.624771
80.68	15.6481
80.9	7.76616
81.12	2.83698
81.34	4.07823
81.56	0.215699
81.78	4.68057
82	0.173997
82.22	1.95505
82.44	10.0823
82.66	8.18769
82.88	3.17328
83.1	10.2297
83.32	1.20707
83.54	4.24269
83.76	0.178617
83.98	7.11899
84.2	14.3263
84.42	6.50655
84.64	1.50585
84.86	6.43852
85.08	14.4833
85.3	15.4611
85.52	1.82577
85.74	2.18736
85.96	7.02304
86.18	9.06377
86.4	21.986
86.62	2.47551
86.84	0.40231
87.06	2.29287
87.28	9.81838
87.5	6.89435
87.72	3.0902
87.94	7.50312
88.16	4.89759
88.38	12.0712
88.6	12.2167
88.82	11.2535
89.04	7.60145
89.26	1.67823
89.48	12.0856
89.7	3.08095
89.92	10.4691
