Measurement: Powder, Xray Data XY Processed
Mineral: Vivianite
Rruff sample: R060025
Ideal chemistry: Fe^2+^_3_(PO_4_)_2_8H_2_O
Locality: Gypsy mine, Minas Gerais, Brazil
Source: Eric Van Valkenburg
Description: Blue-green fragment
Diffraction sample description: Powder
Cell parameters: a: 10.129(1) b: 13.4240(8) c: 4.6848(6) alpha: 90 beta: 104.88(1) gamma: 90 volume: 615.64(8) crystal system: monoclinic
x	intensity
5	0
5.22	7.87189
5.44	24.1746
5.66	8.79363
5.88	7.18677
6.1	20.7926
6.32	40.5623
6.54	30.1419
6.76	23.1003
6.98	24.0031
7.2	4.6077
7.42	11.852
7.64	57.7589
7.86	13.1186
8.08	22.0596
8.3	3.77803
8.52	9.16528
8.74	15.1476
8.96	20.9632
9.18	11.0845
9.4	10.4925
9.62	30.6687
9.84	2.90964
10.06	33.2496
10.28	25.1145
10.5	14.3737
10.72	4.642
10.94	31.6429
11.16	132.115
11.38	38.8864
11.6	21.502
11.82	11.1481
12.04	23.8359
12.26	11.024
12.48	23.6101
12.7	3.94791
12.92	43.4237
13.14	1058.67
13.36	56.9896
13.58	36.4004
13.8	19.2826
14.02	5.15292
14.24	36.0462
14.46	26.274
14.68	8.00635
14.9	3.24036
15.12	43.3267
15.34	29.3226
15.56	29.2054
15.78	44.501
16	15.0761
16.22	21.7742
16.44	47.124
16.66	6.99158
16.88	8.23424
17.1	47.6836
17.32	28.1836
17.54	31.372
17.76	39.2517
17.98	10.1742
18.2	36.0874
18.42	18.4196
18.64	38.3375
18.86	1.46433
19.08	21.5822
19.3	51.9618
19.52	46.5256
19.74	18.4606
19.96	17.9014
20.18	36.7344
20.4	26.4142
20.62	28.6412
20.84	25.882
21.06	13.2843
21.28	2.09918
21.5	40.7516
21.72	40.5809
21.94	61.2048
22.16	3.2722
22.38	9.29613
22.6	11.5901
22.82	35.1434
23.04	47.3733
23.26	31.8237
23.48	17.6051
23.7	32.2392
23.92	43.9254
24.14	3.90378
24.36	13.5911
24.58	35.2918
24.8	17.0569
25.02	36.0366
25.24	22.4737
25.46	14.9365
25.68	22.183
25.9	8.57205
26.12	11.3216
26.34	50.6845
26.56	11.6689
26.78	23.263
27	19.4373
27.22	4.61496
27.44	59.9401
27.66	21.4698
27.88	132.42
28.1	22.4041
28.32	12.2486
28.54	29.5602
28.76	1.71873
28.98	0.639114
29.2	15.6369
29.42	10.4836
29.64	18.9309
29.86	22.7738
30.08	76.5083
30.3	35.5114
30.52	1.35609
30.74	29.113
30.96	34.9321
31.18	27.3465
31.4	19.1132
31.62	26.759
31.84	9.59164
32.06	4.36685
32.28	26.6274
32.5	4.96214
32.72	19.6719
32.94	72.069
33.16	86.8776
33.38	25.824
33.6	4.4427
33.82	19.7548
34.04	46.3608
34.26	24.6127
34.48	23.0034
34.7	34.1273
34.92	1.31444
35.14	13.9844
35.36	15.1576
35.58	51.3004
35.8	21.876
36.02	29.5954
36.24	32.8051
36.46	1.01562
36.68	6.47347
36.9	18.5297
37.12	39.7192
37.34	35.9349
37.56	36.2534
37.78	1.53696
38	20.1219
38.22	31.7871
38.44	12.2636
38.66	23.0283
38.88	43.4574
39.1	17.138
39.32	48.8083
39.54	40.88
39.76	13.0452
39.98	35.7143
40.2	12.8737
40.42	21.2453
40.64	38.2721
40.86	23.2887
41.08	27.564
41.3	38.0402
41.52	33.8457
41.74	35.9658
41.96	30.417
42.18	37.9607
42.4	53.2311
42.62	11.6737
42.84	34.2675
43.06	29.578
43.28	10.5326
43.5	47.5025
43.72	42.8102
43.94	21.1114
44.16	3.30237
44.38	16.3443
44.6	36.5875
44.82	23.3758
45.04	17.809
45.26	1.28786
45.48	17.0193
45.7	2.80322
45.92	54.1855
46.14	25.1965
46.36	6.75137
46.58	20.7722
46.8	23.4429
47.02	1.75478
47.24	33.5558
47.46	36.0174
47.68	30.2591
47.9	8.58874
48.12	25.5691
48.34	26.8591
48.56	16.0545
48.78	28.7447
49	22.8311
49.22	19.4835
49.44	19.0342
49.66	23.5752
49.88	12.6097
50.1	25.3299
50.32	34.1761
50.54	4.33514
50.76	20.8052
50.98	9.02356
51.2	6.3215
51.42	18.1666
51.64	23.5052
51.86	27.7888
52.08	2.36731
52.3	27.5095
52.52	26.7824
52.74	28.27
52.96	43.354
53.18	14.969
53.4	55.7984
53.62	20.4673
53.84	18.186
54.06	22.8438
54.28	7.74472
54.5	68.127
54.72	83.2506
54.94	48.2345
55.16	26.936
55.38	22.093
55.6	13.3719
55.82	49.0087
56.04	23.1285
56.26	11.7278
56.48	29.9282
56.7	4.14504
56.92	7.324
57.14	8.70464
57.36	17.203
57.58	25.0813
57.8	30.1759
58.02	29.4592
58.24	39.9089
58.46	21.2875
58.68	41.8108
58.9	17.6898
59.12	33.0387
59.34	18.8027
59.56	18.248
59.78	1.13355
60	12.1299
60.22	28.755
60.44	23.5031
60.66	32.795
60.88	39.7028
61.1	11.0015
61.32	1.853
61.54	24.9878
61.76	8.67258
61.98	12.6356
62.2	35.0065
62.42	10.3257
62.64	32.1376
62.86	6.14374
63.08	22.0522
63.3	19.3647
63.52	12.8658
63.74	27.8961
63.96	17.4329
64.18	43.0737
64.4	18.8748
64.62	15.1916
64.84	18.2475
65.06	7.88046
65.28	25.0986
65.5	24.4527
65.72	2.08824
65.94	45.5869
66.16	23.5594
66.38	34.5068
66.6	24.3433
66.82	22.8979
67.04	23.5527
67.26	17.1775
67.48	1.03452
67.7	30.3591
67.92	11.7368
68.14	17.294
68.36	30.9293
68.58	14.6563
68.8	17.9298
69.02	3.51324
69.24	17.5318
69.46	18.0552
69.68	27.3859
69.9	48.6917
70.12	37.7398
70.34	45.3623
70.56	21.7673
70.78	19.6032
71	27.946
71.22	13.2347
71.44	29.7388
71.66	29.0668
71.88	11.9787
72.1	30.3788
72.32	20.415
72.54	23.0015
72.76	28.9356
72.98	34.7525
73.2	32.9327
73.42	23.0908
73.64	23.0634
73.86	13.3455
74.08	7.0678
74.3	36.274
74.52	17.216
74.74	13.351
74.96	31.3571
75.18	2.31194
75.4	30.3392
75.62	5.44109
75.84	31.9523
76.06	19.3974
76.28	38.7105
76.5	31.6522
76.72	12.3919
76.94	21.3636
77.16	28.0169
77.38	3.09445
77.6	12.7154
77.82	4.47363
78.04	34.6968
78.26	30.2938
78.48	28.5117
78.7	3.95561
78.92	26.9074
79.14	15.932
79.36	32.8705
79.58	30.9065
79.8	28.6727
80.02	39.2635
80.24	22.0889
80.46	37.0878
80.68	8.67223
80.9	26.6164
81.12	2.82567
81.34	6.91992
81.56	25.5933
81.78	22.6771
82	15.8276
82.22	20.8791
82.44	8.83806
82.66	1.91409
82.88	23.9953
83.1	16.9232
83.32	39.4017
83.54	20.3254
83.76	10.9265
83.98	25.6448
84.2	38.8409
84.42	13.4831
84.64	30.1459
84.86	24.1817
85.08	6.65797
85.3	25.1989
85.52	14.6092
85.74	5.75978
85.96	32.525
86.18	20.2226
86.4	5.60244
86.62	28.3316
86.84	27.9255
87.06	13.8879
87.28	31.1307
87.5	15.1221
87.72	0.513054
87.94	35.9337
88.16	22.4904
88.38	6.37212
88.6	1.74117
88.82	25.3471
89.04	28.0286
89.26	21.5653
89.48	30.9073
89.7	27.972
89.92	26.265
