Mineral: Acanthite
Rruff sample: R080016
Ideal chemistry: Ag^1+^_2_S^2-^
Locality: Imiter mine, Djebel Sarhro, near Quarzazate, Anti Atlas Mountains, Morocco
Source: William W. Pinch
Description: Group of black poorly formed crystals
Diffraction sample description: Powder
Cell parameters: a: 4.2244(9) b: 6.9297(7) c: 7.8653(6) alpha: 90 beta: 99.65(1) gamma: 90 volume: 226.99(4) crystal system: monoclinic
x	intensity
5	0
5.22	19.074
5.44	24.793
5.66	28.1332
5.88	21.1907
6.1	13.7342
6.32	19.6417
6.54	24.4756
6.76	18.103
6.98	10.3712
7.2	24.434
7.42	7.15259
7.64	11.2359
7.86	20.7731
8.08	25.1455
8.3	30.2845
8.52	6.47906
8.74	5.73126
8.96	7.15303
9.18	8.23299
9.4	28.1069
9.62	3.71598
9.84	6.21296
10.06	21.392
10.28	12.0283
10.5	21.2741
10.72	23.0206
10.94	13.1428
11.16	19.4036
11.38	25.5527
11.6	13.1623
11.82	24.4199
12.04	16.8683
12.26	13.0254
12.48	33.9173
12.7	42.2454
12.92	34.636
13.14	35.1134
13.36	35.0727
13.58	4.3407
13.8	28.6977
14.02	24.1709
14.24	27.3564
14.46	18.4845
14.68	6.94817
14.9	27.0381
15.12	7.01955
15.34	35.1295
15.56	23.288
15.78	42.3796
16	14.7538
16.22	3.61567
16.44	11.2288
16.66	40.5251
16.88	5.55808
17.1	21.9264
17.32	10.4605
17.54	31.3564
17.76	1.18633
17.98	11.4858
18.2	19.3071
18.42	31.4248
18.64	15.5102
18.86	9.30177
19.08	4.96461
19.3	15.4661
19.52	17.927
19.74	27.869
19.96	12.7761
20.18	13.406
20.4	13.5678
20.62	5.04171
20.84	5.26869
21.06	11.68
21.28	2.98316
21.5	2.53533
21.72	10.0287
21.94	23.6636
22.16	9.05986
22.38	5.76787
22.6	26.0285
22.82	0.954933
23.04	12.8771
23.26	7.38771
23.48	14.7034
23.7	18.1282
23.92	15.6509
24.14	8.02563
24.36	21.486
24.58	11.1122
24.8	12.1588
25.02	18.6432
25.24	12.5654
25.46	5.04767
25.68	0.578548
25.9	14.3999
26.12	29.4829
26.34	9.11819
26.56	16.2569
26.78	8.67614
27	14.6404
27.22	11.3782
27.44	1.09629
27.66	15.7669
27.88	9.37872
28.1	8.98112
28.32	16.9331
28.54	2.27952
28.76	17.2057
28.98	30.7456
29.2	35.2899
29.42	14.6496
29.64	15.5651
29.86	1.3027
30.08	1.05111
30.3	6.95068
30.52	1.0649
30.74	3.16659
30.96	23.9955
31.18	11.4368
31.4	22.0696
31.62	95.7073
31.84	26.1648
32.06	15.2785
32.28	5.40787
32.5	2.90404
32.72	1.16179
32.94	6.22887
33.16	5.80556
33.38	12.8735
33.6	21.1923
33.82	26.4149
34.04	25.9142
34.26	9.94482
34.48	61.6888
34.7	47.9176
34.92	19.3898
35.14	6.38245
35.36	18.9827
35.58	9.30634
35.8	4.60975
36.02	2.71686
36.24	2.81403
36.46	6.38899
36.68	50.2384
36.9	96.8725
37.12	35.8655
37.34	26.7997
37.56	10.577
37.78	119.018
38	52.9936
38.22	8.1209
38.44	15.178
38.66	11.2214
38.88	1.34886
39.1	3.19927
39.32	11.0245
39.54	14.5203
39.76	17.3827
39.98	12.7532
40.2	8.86527
40.42	20.2734
40.64	3.63318
40.86	17.0841
41.08	14.8619
41.3	17.0423
41.52	8.36944
41.74	7.67805
41.96	7.94503
42.18	12.9931
42.4	3.92684
42.62	5.82675
42.84	8.39403
43.06	17.8589
43.28	21.694
43.5	23.4231
43.72	11.3384
43.94	5.04945
44.16	4.207
44.38	8.38209
44.6	7.82523
44.82	0.375832
45.04	18.0741
45.26	7.67332
45.48	16.519
45.7	15.677
45.92	16.1529
46.14	12.0697
46.36	13.1832
46.58	3.33853
46.8	2.28329
47.02	2.21713
47.24	1.09736
47.46	0.441275
47.68	14.9039
47.9	24.9509
48.12	3.25232
48.34	11.8519
48.56	3.18385
48.78	11.4872
49	16.6558
49.22	5.75715
49.44	11.7146
49.66	4.43085
49.88	3.80712
50.1	10.9253
50.32	8.91443
50.54	12.4543
50.76	11.7261
50.98	12.8256
51.2	20.9358
51.42	12.9696
51.64	1.25791
51.86	3.08167
52.08	8.98669
52.3	5.89102
52.52	6.89349
52.74	10.9373
52.96	14.6574
53.18	20.6287
53.4	10.9372
53.62	10.8896
53.84	7.28805
54.06	3.94771
54.28	12.345
54.5	4.7924
54.72	3.26668
54.94	9.65176
55.16	15.2068
55.38	7.44047
55.6	2.90786
55.82	6.90571
56.04	5.04124
56.26	2.09156
56.48	5.50375
56.7	12.4606
56.92	0.551023
57.14	10.331
57.36	2.80887
57.58	10.7962
57.8	7.11353
58.02	2.87518
58.24	12.8475
58.46	17.7391
58.68	8.52226
58.9	2.47858
59.12	5.40197
59.34	5.49723
59.56	3.7923
59.78	12.7616
60	9.77529
60.22	8.34233
60.44	4.15817
60.66	4.19407
60.88	6.37791
61.1	16.5716
61.32	17.8555
61.54	5.84473
61.76	1.23198
61.98	10.0505
62.2	4.15868
62.42	4.12981
62.64	13.0779
62.86	13.9303
63.08	5.78512
63.3	8.37437
63.52	17.3758
63.74	12.1978
63.96	17.5014
64.18	1.06188
64.4	10.1756
64.62	10.4721
64.84	5.64315
65.06	3.82219
65.28	7.98661
65.5	7.93091
65.72	3.81484
65.94	8.86931
66.16	4.06328
66.38	6.23672
66.6	13.8341
66.82	5.68014
67.04	10.868
67.26	0.757326
67.48	0.534644
67.7	7.55496
67.92	6.43209
68.14	11.1878
68.36	13.199
68.58	13.0709
68.8	10.0724
69.02	4.83471
69.24	8.99364
69.46	1.99317
69.68	10.5493
69.9	5.27862
70.12	12.2196
70.34	15.2338
70.56	10.2136
70.78	9.23503
71	4.67399
71.22	3.78183
71.44	4.03219
71.66	3.72589
71.88	2.01682
72.1	7.25063
72.32	7.43183
72.54	4.56281
72.76	8.77607
72.98	19.1193
73.2	0.949299
73.42	4.70429
73.64	9.78656
73.86	3.7766
74.08	1.7255
74.3	3.85514
74.52	5.18645
74.74	7.41736
74.96	7.46944
75.18	3.91074
75.4	11.9091
75.62	6.33847
75.84	9.52218
76.06	0.862766
76.28	9.12153
76.5	8.49278
76.72	1.33354
76.94	5.96454
77.16	8.93309
77.38	0.033208
77.6	4.48249
77.82	8.38761
78.04	6.99513
78.26	10.0793
78.48	12.8372
78.7	12.9505
78.92	3.78368
79.14	11.7713
79.36	8.086
79.58	11.1242
79.8	1.85863
80.02	11.2818
80.24	10.5657
80.46	11.7003
80.68	6.71332
80.9	7.09442
81.12	2.09089
81.34	4.99688
81.56	7.13797
81.78	5.024
82	3.05044
82.22	11.0242
82.44	4.93058
82.66	2.83001
82.88	1.24146
83.1	7.08104
83.32	9.76894
83.54	6.53292
83.76	8.34632
83.98	2.30911
84.2	0.636658
84.42	8.39621
84.64	6.44185
84.86	4.41265
85.08	3.29635
85.3	6.18865
85.52	0.97012
85.74	8.96817
85.96	8.90618
86.18	8.92721
86.4	10.0311
86.62	4.96423
86.84	6.82145
87.06	10.7542
87.28	12.8556
87.5	6.91079
87.72	0.007636
87.94	2.01047
88.16	0.897171
88.38	4.58212
88.6	9.77595
88.82	16.9288
89.04	9.20557
89.26	10.5574
89.48	6.21492
89.7	14.74
89.92	6.3184
